/*---------------------------------------------------------------------------*\
  =========                 |
  \\      /  F ield         | OpenFOAM: The Open Source CFD Toolbox
   \\    /   O peration     | Website:  https://openfoam.org
    \\  /    A nd           | Version:  12
     \\/     M anipulation  |
\*---------------------------------------------------------------------------*/
Build  : 12-86e126a7bc4d
Exec   : foamRun
Date   : Sep 05 2025
Time   : 16:52:54
Host   : "ed-ThinkPad"
PID    : 24059
I/O    : uncollated
Case   : /home/ecastro/OpenFOAM/ecastro-12/run/tundishTutorial/tundishBasic2D/tundishScalar2D
nProcs : 1
sigFpe : Enabling floating point exception trapping (FOAM_SIGFPE).
fileModificationChecking : Monitoring run-time modified files using timeStampMaster (fileModificationSkew 10)
allowSystemOperations : Allowing user-supplied system call operations

// * * * * * * * * * * * * * * * * * * * * * * * * * * * * * * * * * * * * * //
Create time

--> FOAM Warning : 
    From function void Foam::Time::setControls()
    in file db/Time/Time.C at line 320
    Reading "/home/ecastro/OpenFOAM/ecastro-12/run/tundishTutorial/tundishBasic2D/tundishScalar2D/0/uniform/time" from line 17 to line 27
    Time read from time dictionary 60 differs from actual time 0.
    This may cause unexpected database behaviour. If you are not interested
    in preserving time state delete the time dictionary.
Create mesh for time = 0

Selecting solver functions
Selecting solver incompressibleFluid
Selecting viscosity model constant
Selecting turbulence model type RAS
Selecting RAS turbulence model kEpsilon
Selecting generalised Newtonian model Newtonian
RAS
{
    RASModel        kEpsilon;
    turbulence      off;
    printCoeffs     on;
    viscosityModel  Newtonian;
    Cmu             0.09;
    C1              1.44;
    C2              1.92;
    C3              0;
    sigmak          1;
    sigmaEps        1.3;
}

No MRF models present

Courant Number mean: 0.0338021 max: 0.231062

PIMPLE: No convergence criteria found


PIMPLE: Operating solver in transient mode with 1 outer corrector
PIMPLE: Operating solver in PISO mode



Starting time loop

surfaceFieldValue surfaceFieldValue1:
    total faces  = 4
    total area   = 0.01
surfaceFieldValue1 areaAverage weight field phi    scale factor = 1


scalarTransport write:
DILUPBiCGStab:  Solving for T, Initial residual = 1, Final residual = 1.96551e-09, No Iterations 2

Time = 0.05s

ExecutionTime = 0.100425 s  ClockTime = 1 s

scalarTransport write:
DILUPBiCGStab:  Solving for T, Initial residual = 0.200509, Final residual = 4.06616e-07, No Iterations 1

Time = 0.1s

ExecutionTime = 0.101231 s  ClockTime = 1 s

scalarTransport write:
DILUPBiCGStab:  Solving for T, Initial residual = 0.111663, Final residual = 2.36378e-07, No Iterations 1

Time = 0.15s

ExecutionTime = 0.101967 s  ClockTime = 1 s

scalarTransport write:
DILUPBiCGStab:  Solving for T, Initial residual = 0.0773708, Final residual = 1.679e-07, No Iterations 1

Time = 0.2s

ExecutionTime = 0.102697 s  ClockTime = 1 s

scalarTransport write:
DILUPBiCGStab:  Solving for T, Initial residual = 0.0592081, Final residual = 1.30332e-07, No Iterations 1

Time = 0.25s

ExecutionTime = 0.103417 s  ClockTime = 1 s

scalarTransport write:
DILUPBiCGStab:  Solving for T, Initial residual = 0.0479589, Final residual = 1.06139e-07, No Iterations 1

Time = 0.3s

ExecutionTime = 0.104127 s  ClockTime = 1 s

scalarTransport write:
DILUPBiCGStab:  Solving for T, Initial residual = 0.0403074, Final residual = 8.90566e-08, No Iterations 1

Time = 0.35s

ExecutionTime = 0.104861 s  ClockTime = 1 s

scalarTransport write:
DILUPBiCGStab:  Solving for T, Initial residual = 0.0347671, Final residual = 7.64608e-08, No Iterations 1

Time = 0.4s

ExecutionTime = 0.105587 s  ClockTime = 1 s

scalarTransport write:
DILUPBiCGStab:  Solving for T, Initial residual = 0.0305689, Final residual = 6.71937e-08, No Iterations 1

Time = 0.45s

ExecutionTime = 0.106319 s  ClockTime = 1 s

scalarTransport write:
DILUPBiCGStab:  Solving for T, Initial residual = 0.0272783, Final residual = 6.08983e-08, No Iterations 1

Time = 0.5s

ExecutionTime = 0.107037 s  ClockTime = 1 s

scalarTransport write:
DILUPBiCGStab:  Solving for T, Initial residual = 0.0246297, Final residual = 5.53794e-08, No Iterations 1

Time = 0.55s

ExecutionTime = 0.107757 s  ClockTime = 1 s

scalarTransport write:
DILUPBiCGStab:  Solving for T, Initial residual = 0.0224529, Final residual = 5.05961e-08, No Iterations 1

Time = 0.6s

ExecutionTime = 0.108474 s  ClockTime = 1 s

scalarTransport write:
DILUPBiCGStab:  Solving for T, Initial residual = 0.0206312, Final residual = 4.63551e-08, No Iterations 1

Time = 0.65s

ExecutionTime = 0.10918 s  ClockTime = 1 s

scalarTransport write:
DILUPBiCGStab:  Solving for T, Initial residual = 0.019084, Final residual = 4.25846e-08, No Iterations 1

Time = 0.7s

ExecutionTime = 0.1099 s  ClockTime = 1 s

scalarTransport write:
DILUPBiCGStab:  Solving for T, Initial residual = 0.0177537, Final residual = 3.92237e-08, No Iterations 1

Time = 0.75s

ExecutionTime = 0.110619 s  ClockTime = 1 s

scalarTransport write:
DILUPBiCGStab:  Solving for T, Initial residual = 0.0165978, Final residual = 3.64123e-08, No Iterations 1

Time = 0.8s

ExecutionTime = 0.111336 s  ClockTime = 1 s

scalarTransport write:
DILUPBiCGStab:  Solving for T, Initial residual = 0.0155836, Final residual = 3.42404e-08, No Iterations 1

Time = 0.85s

ExecutionTime = 0.112061 s  ClockTime = 1 s

scalarTransport write:
DILUPBiCGStab:  Solving for T, Initial residual = 0.0146868, Final residual = 3.21974e-08, No Iterations 1

Time = 0.9s

ExecutionTime = 0.112781 s  ClockTime = 1 s

scalarTransport write:
DILUPBiCGStab:  Solving for T, Initial residual = 0.013888, Final residual = 3.03216e-08, No Iterations 1

Time = 0.95s

ExecutionTime = 0.113561 s  ClockTime = 1 s

scalarTransport write:
DILUPBiCGStab:  Solving for T, Initial residual = 0.0131721, Final residual = 2.86522e-08, No Iterations 1

Time = 1s

ExecutionTime = 0.114477 s  ClockTime = 1 s

scalarTransport write:
DILUPBiCGStab:  Solving for T, Initial residual = 0.0125271, Final residual = 2.70809e-08, No Iterations 1

Time = 1.05s

ExecutionTime = 0.115298 s  ClockTime = 1 s

scalarTransport write:
DILUPBiCGStab:  Solving for T, Initial residual = 0.0119426, Final residual = 2.56897e-08, No Iterations 1

Time = 1.1s

ExecutionTime = 0.116032 s  ClockTime = 1 s

scalarTransport write:
DILUPBiCGStab:  Solving for T, Initial residual = 0.0114105, Final residual = 2.45848e-08, No Iterations 1

Time = 1.15s

ExecutionTime = 0.116752 s  ClockTime = 1 s

scalarTransport write:
DILUPBiCGStab:  Solving for T, Initial residual = 0.010924, Final residual = 2.35034e-08, No Iterations 1

Time = 1.2s

ExecutionTime = 0.117468 s  ClockTime = 1 s

scalarTransport write:
DILUPBiCGStab:  Solving for T, Initial residual = 0.0104778, Final residual = 2.24526e-08, No Iterations 1

Time = 1.25s

ExecutionTime = 0.118178 s  ClockTime = 1 s

scalarTransport write:
DILUPBiCGStab:  Solving for T, Initial residual = 0.0100668, Final residual = 2.14366e-08, No Iterations 1

Time = 1.3s

ExecutionTime = 0.118904 s  ClockTime = 1 s

scalarTransport write:
DILUPBiCGStab:  Solving for T, Initial residual = 0.00968728, Final residual = 2.05553e-08, No Iterations 1

Time = 1.35s

ExecutionTime = 0.119645 s  ClockTime = 1 s

scalarTransport write:
DILUPBiCGStab:  Solving for T, Initial residual = 0.00933563, Final residual = 1.9818e-08, No Iterations 1

Time = 1.4s

ExecutionTime = 0.120363 s  ClockTime = 1 s

scalarTransport write:
DILUPBiCGStab:  Solving for T, Initial residual = 0.0090088, Final residual = 1.91623e-08, No Iterations 1

Time = 1.45s

ExecutionTime = 0.121071 s  ClockTime = 1 s

scalarTransport write:
DILUPBiCGStab:  Solving for T, Initial residual = 0.00870414, Final residual = 1.85211e-08, No Iterations 1

Time = 1.5s

ExecutionTime = 0.121793 s  ClockTime = 1 s

scalarTransport write:
DILUPBiCGStab:  Solving for T, Initial residual = 0.00841966, Final residual = 1.78812e-08, No Iterations 1

Time = 1.55s

ExecutionTime = 0.122488 s  ClockTime = 1 s

scalarTransport write:
DILUPBiCGStab:  Solving for T, Initial residual = 0.00815344, Final residual = 1.72463e-08, No Iterations 1

Time = 1.6s

ExecutionTime = 0.123189 s  ClockTime = 1 s

scalarTransport write:
DILUPBiCGStab:  Solving for T, Initial residual = 0.00790402, Final residual = 1.66285e-08, No Iterations 1

Time = 1.65s

ExecutionTime = 0.123882 s  ClockTime = 1 s

scalarTransport write:
DILUPBiCGStab:  Solving for T, Initial residual = 0.00766972, Final residual = 1.61929e-08, No Iterations 1

Time = 1.7s

ExecutionTime = 0.124574 s  ClockTime = 1 s

scalarTransport write:
DILUPBiCGStab:  Solving for T, Initial residual = 0.007449, Final residual = 1.57502e-08, No Iterations 1

Time = 1.75s

ExecutionTime = 0.125267 s  ClockTime = 1 s

scalarTransport write:
DILUPBiCGStab:  Solving for T, Initial residual = 0.00724056, Final residual = 1.53129e-08, No Iterations 1

Time = 1.8s

ExecutionTime = 0.125955 s  ClockTime = 1 s

scalarTransport write:
DILUPBiCGStab:  Solving for T, Initial residual = 0.00704362, Final residual = 1.48798e-08, No Iterations 1

Time = 1.85s

ExecutionTime = 0.126662 s  ClockTime = 1 s

scalarTransport write:
DILUPBiCGStab:  Solving for T, Initial residual = 0.00685744, Final residual = 1.44481e-08, No Iterations 1

Time = 1.9s

ExecutionTime = 0.127355 s  ClockTime = 1 s

scalarTransport write:
DILUPBiCGStab:  Solving for T, Initial residual = 0.00668128, Final residual = 1.40347e-08, No Iterations 1

Time = 1.95s

ExecutionTime = 0.12804 s  ClockTime = 1 s

scalarTransport write:
DILUPBiCGStab:  Solving for T, Initial residual = 0.00651422, Final residual = 1.36802e-08, No Iterations 1

Time = 2s

ExecutionTime = 0.12874 s  ClockTime = 1 s

scalarTransport write:
DILUPBiCGStab:  Solving for T, Initial residual = 0.00635541, Final residual = 1.33693e-08, No Iterations 1

Time = 2.05s

ExecutionTime = 0.129435 s  ClockTime = 1 s

scalarTransport write:
DILUPBiCGStab:  Solving for T, Initial residual = 0.00620415, Final residual = 1.30503e-08, No Iterations 1

Time = 2.1s

ExecutionTime = 0.130208 s  ClockTime = 1 s

scalarTransport write:
DILUPBiCGStab:  Solving for T, Initial residual = 0.00605975, Final residual = 1.27316e-08, No Iterations 1

Time = 2.15s

ExecutionTime = 0.131021 s  ClockTime = 1 s

scalarTransport write:
DILUPBiCGStab:  Solving for T, Initial residual = 0.00592192, Final residual = 1.24103e-08, No Iterations 1

Time = 2.2s

ExecutionTime = 0.131753 s  ClockTime = 1 s

scalarTransport write:
DILUPBiCGStab:  Solving for T, Initial residual = 0.00579031, Final residual = 1.20898e-08, No Iterations 1

Time = 2.25s

ExecutionTime = 0.132473 s  ClockTime = 1 s

scalarTransport write:
DILUPBiCGStab:  Solving for T, Initial residual = 0.00566458, Final residual = 1.18171e-08, No Iterations 1

Time = 2.3s

ExecutionTime = 0.133169 s  ClockTime = 1 s

scalarTransport write:
DILUPBiCGStab:  Solving for T, Initial residual = 0.00554434, Final residual = 1.15694e-08, No Iterations 1

Time = 2.35s

ExecutionTime = 0.133897 s  ClockTime = 1 s

scalarTransport write:
DILUPBiCGStab:  Solving for T, Initial residual = 0.00542921, Final residual = 1.13374e-08, No Iterations 1

Time = 2.4s

ExecutionTime = 0.134575 s  ClockTime = 1 s

scalarTransport write:
DILUPBiCGStab:  Solving for T, Initial residual = 0.00531876, Final residual = 1.10945e-08, No Iterations 1

Time = 2.45s

ExecutionTime = 0.13524 s  ClockTime = 1 s

scalarTransport write:
DILUPBiCGStab:  Solving for T, Initial residual = 0.00521267, Final residual = 1.08427e-08, No Iterations 1

Time = 2.5s

ExecutionTime = 0.135911 s  ClockTime = 1 s

scalarTransport write:
DILUPBiCGStab:  Solving for T, Initial residual = 0.00511074, Final residual = 1.05899e-08, No Iterations 1

Time = 2.55s

ExecutionTime = 0.136579 s  ClockTime = 1 s

scalarTransport write:
DILUPBiCGStab:  Solving for T, Initial residual = 0.00501273, Final residual = 1.0344e-08, No Iterations 1

Time = 2.6s

ExecutionTime = 0.137237 s  ClockTime = 1 s

scalarTransport write:
DILUPBiCGStab:  Solving for T, Initial residual = 0.00491847, Final residual = 1.01194e-08, No Iterations 1

Time = 2.65s

ExecutionTime = 0.137894 s  ClockTime = 1 s

scalarTransport write:
DILUPBiCGStab:  Solving for T, Initial residual = 0.00482782, Final residual = 9.91798e-09, No Iterations 1

Time = 2.7s

ExecutionTime = 0.138545 s  ClockTime = 1 s

scalarTransport write:
DILUPBiCGStab:  Solving for T, Initial residual = 0.00474066, Final residual = 9.72386e-09, No Iterations 1

Time = 2.75s

ExecutionTime = 0.139186 s  ClockTime = 1 s

scalarTransport write:
DILUPBiCGStab:  Solving for T, Initial residual = 0.00465677, Final residual = 9.53431e-09, No Iterations 1

Time = 2.8s

ExecutionTime = 0.139836 s  ClockTime = 1 s

scalarTransport write:
DILUPBiCGStab:  Solving for T, Initial residual = 0.00457581, Final residual = 9.33806e-09, No Iterations 1

Time = 2.85s

ExecutionTime = 0.140499 s  ClockTime = 1 s

scalarTransport write:
DILUPBiCGStab:  Solving for T, Initial residual = 0.00449758, Final residual = 9.1375e-09, No Iterations 1

Time = 2.9s

ExecutionTime = 0.141143 s  ClockTime = 1 s

scalarTransport write:
DILUPBiCGStab:  Solving for T, Initial residual = 0.00442196, Final residual = 8.93805e-09, No Iterations 1

Time = 2.95s

ExecutionTime = 0.141791 s  ClockTime = 1 s

scalarTransport write:
DILUPBiCGStab:  Solving for T, Initial residual = 0.00434888, Final residual = 8.75525e-09, No Iterations 1

Time = 3s

ExecutionTime = 0.142436 s  ClockTime = 1 s

scalarTransport write:
DILUPBiCGStab:  Solving for T, Initial residual = 0.00427829, Final residual = 8.58984e-09, No Iterations 1

Time = 3.05s

ExecutionTime = 0.143076 s  ClockTime = 1 s

scalarTransport write:
DILUPBiCGStab:  Solving for T, Initial residual = 0.00421003, Final residual = 8.431e-09, No Iterations 1

Time = 3.1s

ExecutionTime = 0.143734 s  ClockTime = 1 s

scalarTransport write:
DILUPBiCGStab:  Solving for T, Initial residual = 0.00414401, Final residual = 8.26875e-09, No Iterations 1

Time = 3.15s

ExecutionTime = 0.144363 s  ClockTime = 1 s

scalarTransport write:
DILUPBiCGStab:  Solving for T, Initial residual = 0.00408012, Final residual = 8.10072e-09, No Iterations 1

Time = 3.2s

ExecutionTime = 0.14499 s  ClockTime = 1 s

scalarTransport write:
DILUPBiCGStab:  Solving for T, Initial residual = 0.00401826, Final residual = 7.93475e-09, No Iterations 1

Time = 3.25s

ExecutionTime = 0.145603 s  ClockTime = 1 s

scalarTransport write:
DILUPBiCGStab:  Solving for T, Initial residual = 0.00395837, Final residual = 7.76713e-09, No Iterations 1

Time = 3.3s

ExecutionTime = 0.14621 s  ClockTime = 1 s

scalarTransport write:
DILUPBiCGStab:  Solving for T, Initial residual = 0.00390034, Final residual = 7.60542e-09, No Iterations 1

Time = 3.35s

ExecutionTime = 0.146864 s  ClockTime = 1 s

scalarTransport write:
DILUPBiCGStab:  Solving for T, Initial residual = 0.00384395, Final residual = 7.45856e-09, No Iterations 1

Time = 3.4s

ExecutionTime = 0.147494 s  ClockTime = 1 s

scalarTransport write:
DILUPBiCGStab:  Solving for T, Initial residual = 0.00378911, Final residual = 7.32599e-09, No Iterations 1

Time = 3.45s

ExecutionTime = 0.148111 s  ClockTime = 1 s

scalarTransport write:
DILUPBiCGStab:  Solving for T, Initial residual = 0.00373578, Final residual = 7.19103e-09, No Iterations 1

Time = 3.5s

ExecutionTime = 0.148841 s  ClockTime = 1 s

scalarTransport write:
DILUPBiCGStab:  Solving for T, Initial residual = 0.003684, Final residual = 7.05411e-09, No Iterations 1

Time = 3.55s

ExecutionTime = 0.14958 s  ClockTime = 1 s

scalarTransport write:
DILUPBiCGStab:  Solving for T, Initial residual = 0.00363371, Final residual = 6.9145e-09, No Iterations 1

Time = 3.6s

ExecutionTime = 0.150192 s  ClockTime = 1 s

scalarTransport write:
DILUPBiCGStab:  Solving for T, Initial residual = 0.00358479, Final residual = 6.77247e-09, No Iterations 1

Time = 3.65s

ExecutionTime = 0.150787 s  ClockTime = 1 s

scalarTransport write:
DILUPBiCGStab:  Solving for T, Initial residual = 0.00353718, Final residual = 6.63296e-09, No Iterations 1

Time = 3.7s

ExecutionTime = 0.151371 s  ClockTime = 1 s

scalarTransport write:
DILUPBiCGStab:  Solving for T, Initial residual = 0.00349088, Final residual = 6.50377e-09, No Iterations 1

Time = 3.75s

ExecutionTime = 0.151952 s  ClockTime = 1 s

scalarTransport write:
DILUPBiCGStab:  Solving for T, Initial residual = 0.00344584, Final residual = 6.38859e-09, No Iterations 1

Time = 3.8s

ExecutionTime = 0.152525 s  ClockTime = 1 s

scalarTransport write:
DILUPBiCGStab:  Solving for T, Initial residual = 0.00340205, Final residual = 6.2757e-09, No Iterations 1

Time = 3.85s

ExecutionTime = 0.153111 s  ClockTime = 1 s

scalarTransport write:
DILUPBiCGStab:  Solving for T, Initial residual = 0.0033594, Final residual = 6.15997e-09, No Iterations 1

Time = 3.9s

ExecutionTime = 0.153689 s  ClockTime = 1 s

scalarTransport write:
DILUPBiCGStab:  Solving for T, Initial residual = 0.0033178, Final residual = 6.04295e-09, No Iterations 1

Time = 3.95s

ExecutionTime = 0.15426 s  ClockTime = 1 s

scalarTransport write:
DILUPBiCGStab:  Solving for T, Initial residual = 0.0032772, Final residual = 5.92571e-09, No Iterations 1

Time = 4s

ExecutionTime = 0.154829 s  ClockTime = 1 s

scalarTransport write:
DILUPBiCGStab:  Solving for T, Initial residual = 0.00323753, Final residual = 5.81042e-09, No Iterations 1

Time = 4.05s

ExecutionTime = 0.155402 s  ClockTime = 1 s

scalarTransport write:
DILUPBiCGStab:  Solving for T, Initial residual = 0.00319879, Final residual = 5.6928e-09, No Iterations 1

Time = 4.1s

ExecutionTime = 0.155966 s  ClockTime = 1 s

scalarTransport write:
DILUPBiCGStab:  Solving for T, Initial residual = 0.003161, Final residual = 5.57618e-09, No Iterations 1

Time = 4.15s

ExecutionTime = 0.156535 s  ClockTime = 1 s

scalarTransport write:
DILUPBiCGStab:  Solving for T, Initial residual = 0.00312416, Final residual = 5.47167e-09, No Iterations 1

Time = 4.2s

ExecutionTime = 0.1571 s  ClockTime = 1 s

scalarTransport write:
DILUPBiCGStab:  Solving for T, Initial residual = 0.00308824, Final residual = 5.37374e-09, No Iterations 1

Time = 4.25s

ExecutionTime = 0.157653 s  ClockTime = 1 s

scalarTransport write:
DILUPBiCGStab:  Solving for T, Initial residual = 0.00305318, Final residual = 5.27408e-09, No Iterations 1

Time = 4.3s

ExecutionTime = 0.158204 s  ClockTime = 1 s

scalarTransport write:
DILUPBiCGStab:  Solving for T, Initial residual = 0.00301897, Final residual = 5.17794e-09, No Iterations 1

Time = 4.35s

ExecutionTime = 0.158771 s  ClockTime = 1 s

scalarTransport write:
DILUPBiCGStab:  Solving for T, Initial residual = 0.0029856, Final residual = 5.08279e-09, No Iterations 1

Time = 4.4s

ExecutionTime = 0.159328 s  ClockTime = 1 s

scalarTransport write:
DILUPBiCGStab:  Solving for T, Initial residual = 0.002953, Final residual = 4.98632e-09, No Iterations 1

Time = 4.45s

ExecutionTime = 0.159877 s  ClockTime = 1 s

scalarTransport write:
DILUPBiCGStab:  Solving for T, Initial residual = 0.00292112, Final residual = 4.88927e-09, No Iterations 1

Time = 4.5s

ExecutionTime = 0.160431 s  ClockTime = 1 s

scalarTransport write:
DILUPBiCGStab:  Solving for T, Initial residual = 0.00288991, Final residual = 4.79129e-09, No Iterations 1

Time = 4.55s

ExecutionTime = 0.16098 s  ClockTime = 1 s

scalarTransport write:
DILUPBiCGStab:  Solving for T, Initial residual = 0.00285935, Final residual = 4.69549e-09, No Iterations 1

Time = 4.6s

ExecutionTime = 0.161534 s  ClockTime = 1 s

scalarTransport write:
DILUPBiCGStab:  Solving for T, Initial residual = 0.00282941, Final residual = 4.60994e-09, No Iterations 1

Time = 4.65s

ExecutionTime = 0.162084 s  ClockTime = 1 s

scalarTransport write:
DILUPBiCGStab:  Solving for T, Initial residual = 0.00280008, Final residual = 4.52474e-09, No Iterations 1

Time = 4.7s

ExecutionTime = 0.162642 s  ClockTime = 1 s

scalarTransport write:
DILUPBiCGStab:  Solving for T, Initial residual = 0.00277137, Final residual = 4.443e-09, No Iterations 1

Time = 4.75s

ExecutionTime = 0.163193 s  ClockTime = 1 s

scalarTransport write:
DILUPBiCGStab:  Solving for T, Initial residual = 0.00274327, Final residual = 4.36179e-09, No Iterations 1

Time = 4.8s

ExecutionTime = 0.163825 s  ClockTime = 1 s

scalarTransport write:
DILUPBiCGStab:  Solving for T, Initial residual = 0.00271576, Final residual = 4.27973e-09, No Iterations 1

Time = 4.85s

ExecutionTime = 0.164409 s  ClockTime = 1 s

scalarTransport write:
DILUPBiCGStab:  Solving for T, Initial residual = 0.00268884, Final residual = 4.19743e-09, No Iterations 1

Time = 4.9s

ExecutionTime = 0.164974 s  ClockTime = 1 s

scalarTransport write:
DILUPBiCGStab:  Solving for T, Initial residual = 0.00266245, Final residual = 4.11457e-09, No Iterations 1

Time = 4.95s

ExecutionTime = 0.165546 s  ClockTime = 1 s

scalarTransport write:
DILUPBiCGStab:  Solving for T, Initial residual = 0.00263657, Final residual = 4.03096e-09, No Iterations 1

Time = 5s

ExecutionTime = 0.167856 s  ClockTime = 1 s

scalarTransport write:
DILUPBiCGStab:  Solving for T, Initial residual = 0.0026112, Final residual = 3.94982e-09, No Iterations 1

Time = 5.05s

ExecutionTime = 0.168441 s  ClockTime = 1 s

scalarTransport write:
DILUPBiCGStab:  Solving for T, Initial residual = 0.00258638, Final residual = 3.87829e-09, No Iterations 1

Time = 5.1s

ExecutionTime = 0.168999 s  ClockTime = 1 s

scalarTransport write:
DILUPBiCGStab:  Solving for T, Initial residual = 0.00256208, Final residual = 3.81008e-09, No Iterations 1

Time = 5.15s

ExecutionTime = 0.169554 s  ClockTime = 1 s

scalarTransport write:
DILUPBiCGStab:  Solving for T, Initial residual = 0.00253826, Final residual = 3.74153e-09, No Iterations 1

Time = 5.2s

ExecutionTime = 0.1701 s  ClockTime = 1 s

scalarTransport write:
DILUPBiCGStab:  Solving for T, Initial residual = 0.00251488, Final residual = 3.67237e-09, No Iterations 1

Time = 5.25s

ExecutionTime = 0.170651 s  ClockTime = 1 s

scalarTransport write:
DILUPBiCGStab:  Solving for T, Initial residual = 0.00249194, Final residual = 3.6039e-09, No Iterations 1

Time = 5.3s

ExecutionTime = 0.171197 s  ClockTime = 1 s

scalarTransport write:
DILUPBiCGStab:  Solving for T, Initial residual = 0.00246942, Final residual = 3.53483e-09, No Iterations 1

Time = 5.35s

ExecutionTime = 0.171763 s  ClockTime = 1 s

scalarTransport write:
DILUPBiCGStab:  Solving for T, Initial residual = 0.00244728, Final residual = 3.4663e-09, No Iterations 1

Time = 5.4s

ExecutionTime = 0.172315 s  ClockTime = 1 s

scalarTransport write:
DILUPBiCGStab:  Solving for T, Initial residual = 0.00242555, Final residual = 3.39766e-09, No Iterations 1

Time = 5.45s

ExecutionTime = 0.172861 s  ClockTime = 1 s

scalarTransport write:
DILUPBiCGStab:  Solving for T, Initial residual = 0.00240423, Final residual = 3.33077e-09, No Iterations 1

Time = 5.5s

ExecutionTime = 0.173413 s  ClockTime = 1 s

scalarTransport write:
DILUPBiCGStab:  Solving for T, Initial residual = 0.00238332, Final residual = 3.26952e-09, No Iterations 1

Time = 5.55s

ExecutionTime = 0.173958 s  ClockTime = 1 s

scalarTransport write:
DILUPBiCGStab:  Solving for T, Initial residual = 0.0023628, Final residual = 3.21155e-09, No Iterations 1

Time = 5.6s

ExecutionTime = 0.174508 s  ClockTime = 1 s

scalarTransport write:
DILUPBiCGStab:  Solving for T, Initial residual = 0.00234265, Final residual = 3.15381e-09, No Iterations 1

Time = 5.65s

ExecutionTime = 0.175052 s  ClockTime = 1 s

scalarTransport write:
DILUPBiCGStab:  Solving for T, Initial residual = 0.00232286, Final residual = 3.09636e-09, No Iterations 1

Time = 5.7s

ExecutionTime = 0.175601 s  ClockTime = 1 s

scalarTransport write:
DILUPBiCGStab:  Solving for T, Initial residual = 0.00230341, Final residual = 3.03865e-09, No Iterations 1

Time = 5.75s

ExecutionTime = 0.176146 s  ClockTime = 1 s

scalarTransport write:
DILUPBiCGStab:  Solving for T, Initial residual = 0.00228432, Final residual = 2.98092e-09, No Iterations 1

Time = 5.8s

ExecutionTime = 0.176697 s  ClockTime = 1 s

scalarTransport write:
DILUPBiCGStab:  Solving for T, Initial residual = 0.00226557, Final residual = 2.92307e-09, No Iterations 1

Time = 5.85s

ExecutionTime = 0.177252 s  ClockTime = 1 s

scalarTransport write:
DILUPBiCGStab:  Solving for T, Initial residual = 0.00224713, Final residual = 2.8655e-09, No Iterations 1

Time = 5.9s

ExecutionTime = 0.17781 s  ClockTime = 1 s

scalarTransport write:
DILUPBiCGStab:  Solving for T, Initial residual = 0.00222898, Final residual = 2.80934e-09, No Iterations 1

Time = 5.95s

ExecutionTime = 0.17836 s  ClockTime = 1 s

scalarTransport write:
DILUPBiCGStab:  Solving for T, Initial residual = 0.00221108, Final residual = 2.75715e-09, No Iterations 1

Time = 6s

ExecutionTime = 0.178905 s  ClockTime = 1 s

scalarTransport write:
DILUPBiCGStab:  Solving for T, Initial residual = 0.00219347, Final residual = 2.70588e-09, No Iterations 1

Time = 6.05s

ExecutionTime = 0.179453 s  ClockTime = 1 s

scalarTransport write:
DILUPBiCGStab:  Solving for T, Initial residual = 0.00217616, Final residual = 2.65817e-09, No Iterations 1

Time = 6.1s

ExecutionTime = 0.179998 s  ClockTime = 1 s

scalarTransport write:
DILUPBiCGStab:  Solving for T, Initial residual = 0.00215917, Final residual = 2.61078e-09, No Iterations 1

Time = 6.15s

ExecutionTime = 0.180551 s  ClockTime = 1 s

scalarTransport write:
DILUPBiCGStab:  Solving for T, Initial residual = 0.00214247, Final residual = 2.56308e-09, No Iterations 1

Time = 6.2s

ExecutionTime = 0.181097 s  ClockTime = 1 s

scalarTransport write:
DILUPBiCGStab:  Solving for T, Initial residual = 0.00212603, Final residual = 2.51514e-09, No Iterations 1

Time = 6.25s

ExecutionTime = 0.181646 s  ClockTime = 1 s

scalarTransport write:
DILUPBiCGStab:  Solving for T, Initial residual = 0.00210984, Final residual = 2.46706e-09, No Iterations 1

Time = 6.3s

ExecutionTime = 0.182193 s  ClockTime = 1 s

scalarTransport write:
DILUPBiCGStab:  Solving for T, Initial residual = 0.0020939, Final residual = 2.41961e-09, No Iterations 1

Time = 6.35s

ExecutionTime = 0.182758 s  ClockTime = 1 s

scalarTransport write:
DILUPBiCGStab:  Solving for T, Initial residual = 0.0020782, Final residual = 2.37274e-09, No Iterations 1

Time = 6.4s

ExecutionTime = 0.183309 s  ClockTime = 1 s

scalarTransport write:
DILUPBiCGStab:  Solving for T, Initial residual = 0.00206274, Final residual = 2.32689e-09, No Iterations 1

Time = 6.45s

ExecutionTime = 0.183852 s  ClockTime = 1 s

scalarTransport write:
DILUPBiCGStab:  Solving for T, Initial residual = 0.00204756, Final residual = 2.28497e-09, No Iterations 1

Time = 6.5s

ExecutionTime = 0.1844 s  ClockTime = 1 s

scalarTransport write:
DILUPBiCGStab:  Solving for T, Initial residual = 0.00203261, Final residual = 2.24291e-09, No Iterations 1

Time = 6.55s

ExecutionTime = 0.184942 s  ClockTime = 1 s

scalarTransport write:
DILUPBiCGStab:  Solving for T, Initial residual = 0.00201788, Final residual = 2.2009e-09, No Iterations 1

Time = 6.6s

ExecutionTime = 0.185491 s  ClockTime = 1 s

scalarTransport write:
DILUPBiCGStab:  Solving for T, Initial residual = 0.0020034, Final residual = 2.16041e-09, No Iterations 1

Time = 6.65s

ExecutionTime = 0.186033 s  ClockTime = 1 s

scalarTransport write:
DILUPBiCGStab:  Solving for T, Initial residual = 0.00198914, Final residual = 2.12067e-09, No Iterations 1

Time = 6.7s

ExecutionTime = 0.18658 s  ClockTime = 1 s

scalarTransport write:
DILUPBiCGStab:  Solving for T, Initial residual = 0.0019751, Final residual = 2.08097e-09, No Iterations 1

Time = 6.75s

ExecutionTime = 0.187122 s  ClockTime = 1 s

scalarTransport write:
DILUPBiCGStab:  Solving for T, Initial residual = 0.00196124, Final residual = 2.04128e-09, No Iterations 1

Time = 6.8s

ExecutionTime = 0.18767 s  ClockTime = 1 s

scalarTransport write:
DILUPBiCGStab:  Solving for T, Initial residual = 0.00194756, Final residual = 2.00208e-09, No Iterations 1

Time = 6.85s

ExecutionTime = 0.188225 s  ClockTime = 1 s

scalarTransport write:
DILUPBiCGStab:  Solving for T, Initial residual = 0.00193408, Final residual = 1.96413e-09, No Iterations 1

Time = 6.9s

ExecutionTime = 0.188775 s  ClockTime = 1 s

scalarTransport write:
DILUPBiCGStab:  Solving for T, Initial residual = 0.00192078, Final residual = 1.92764e-09, No Iterations 1

Time = 6.95s

ExecutionTime = 0.189325 s  ClockTime = 1 s

scalarTransport write:
DILUPBiCGStab:  Solving for T, Initial residual = 0.00190765, Final residual = 1.89228e-09, No Iterations 1

Time = 7s

ExecutionTime = 0.189876 s  ClockTime = 1 s

scalarTransport write:
DILUPBiCGStab:  Solving for T, Initial residual = 0.00189468, Final residual = 1.858e-09, No Iterations 1

Time = 7.05s

ExecutionTime = 0.190424 s  ClockTime = 1 s

scalarTransport write:
DILUPBiCGStab:  Solving for T, Initial residual = 0.00188193, Final residual = 1.82376e-09, No Iterations 1

Time = 7.1s

ExecutionTime = 0.190965 s  ClockTime = 1 s

scalarTransport write:
DILUPBiCGStab:  Solving for T, Initial residual = 0.00186937, Final residual = 1.78959e-09, No Iterations 1

Time = 7.15s

ExecutionTime = 0.191513 s  ClockTime = 1 s

scalarTransport write:
DILUPBiCGStab:  Solving for T, Initial residual = 0.00185699, Final residual = 1.75564e-09, No Iterations 1

Time = 7.2s

ExecutionTime = 0.192054 s  ClockTime = 1 s

scalarTransport write:
DILUPBiCGStab:  Solving for T, Initial residual = 0.00184479, Final residual = 1.72286e-09, No Iterations 1

Time = 7.25s

ExecutionTime = 0.192602 s  ClockTime = 1 s

scalarTransport write:
DILUPBiCGStab:  Solving for T, Initial residual = 0.00183276, Final residual = 1.69045e-09, No Iterations 1

Time = 7.3s

ExecutionTime = 0.193142 s  ClockTime = 1 s

scalarTransport write:
DILUPBiCGStab:  Solving for T, Initial residual = 0.0018209, Final residual = 1.65839e-09, No Iterations 1

Time = 7.35s

ExecutionTime = 0.193699 s  ClockTime = 1 s

scalarTransport write:
DILUPBiCGStab:  Solving for T, Initial residual = 0.00180921, Final residual = 1.62766e-09, No Iterations 1

Time = 7.4s

ExecutionTime = 0.194242 s  ClockTime = 1 s

scalarTransport write:
DILUPBiCGStab:  Solving for T, Initial residual = 0.00179768, Final residual = 1.59773e-09, No Iterations 1

Time = 7.45s

ExecutionTime = 0.194791 s  ClockTime = 1 s

scalarTransport write:
DILUPBiCGStab:  Solving for T, Initial residual = 0.0017863, Final residual = 1.56794e-09, No Iterations 1

Time = 7.5s

ExecutionTime = 0.195338 s  ClockTime = 1 s

scalarTransport write:
DILUPBiCGStab:  Solving for T, Initial residual = 0.00177508, Final residual = 1.53829e-09, No Iterations 1

Time = 7.55s

ExecutionTime = 0.195883 s  ClockTime = 1 s

scalarTransport write:
DILUPBiCGStab:  Solving for T, Initial residual = 0.00176401, Final residual = 1.50966e-09, No Iterations 1

Time = 7.6s

ExecutionTime = 0.19643 s  ClockTime = 1 s

scalarTransport write:
DILUPBiCGStab:  Solving for T, Initial residual = 0.00175308, Final residual = 1.48166e-09, No Iterations 1

Time = 7.65s

ExecutionTime = 0.196971 s  ClockTime = 1 s

scalarTransport write:
DILUPBiCGStab:  Solving for T, Initial residual = 0.0017423, Final residual = 1.45378e-09, No Iterations 1

Time = 7.7s

ExecutionTime = 0.197516 s  ClockTime = 1 s

scalarTransport write:
DILUPBiCGStab:  Solving for T, Initial residual = 0.00173165, Final residual = 1.4261e-09, No Iterations 1

Time = 7.75s

ExecutionTime = 0.198058 s  ClockTime = 1 s

scalarTransport write:
DILUPBiCGStab:  Solving for T, Initial residual = 0.00172113, Final residual = 1.39877e-09, No Iterations 1

Time = 7.8s

ExecutionTime = 0.198605 s  ClockTime = 1 s

scalarTransport write:
DILUPBiCGStab:  Solving for T, Initial residual = 0.00171073, Final residual = 1.3722e-09, No Iterations 1

Time = 7.85s

ExecutionTime = 0.199157 s  ClockTime = 1 s

scalarTransport write:
DILUPBiCGStab:  Solving for T, Initial residual = 0.00170048, Final residual = 1.34644e-09, No Iterations 1

Time = 7.9s

ExecutionTime = 0.199705 s  ClockTime = 1 s

scalarTransport write:
DILUPBiCGStab:  Solving for T, Initial residual = 0.00169035, Final residual = 1.32204e-09, No Iterations 1

Time = 7.95s

ExecutionTime = 0.200246 s  ClockTime = 1 s

scalarTransport write:
DILUPBiCGStab:  Solving for T, Initial residual = 0.00168034, Final residual = 1.2979e-09, No Iterations 1

Time = 8s

ExecutionTime = 0.200791 s  ClockTime = 1 s

scalarTransport write:
DILUPBiCGStab:  Solving for T, Initial residual = 0.00167044, Final residual = 1.27389e-09, No Iterations 1

Time = 8.05s

ExecutionTime = 0.201342 s  ClockTime = 1 s

scalarTransport write:
DILUPBiCGStab:  Solving for T, Initial residual = 0.00166065, Final residual = 1.25011e-09, No Iterations 1

Time = 8.1s

ExecutionTime = 0.201885 s  ClockTime = 1 s

scalarTransport write:
DILUPBiCGStab:  Solving for T, Initial residual = 0.00165099, Final residual = 1.22648e-09, No Iterations 1

Time = 8.15s

ExecutionTime = 0.202431 s  ClockTime = 1 s

scalarTransport write:
DILUPBiCGStab:  Solving for T, Initial residual = 0.00164146, Final residual = 1.20304e-09, No Iterations 1

Time = 8.2s

ExecutionTime = 0.202972 s  ClockTime = 1 s

scalarTransport write:
DILUPBiCGStab:  Solving for T, Initial residual = 0.00163206, Final residual = 1.18014e-09, No Iterations 1

Time = 8.25s

ExecutionTime = 0.203518 s  ClockTime = 1 s

scalarTransport write:
DILUPBiCGStab:  Solving for T, Initial residual = 0.00162276, Final residual = 1.15795e-09, No Iterations 1

Time = 8.3s

ExecutionTime = 0.204057 s  ClockTime = 1 s

scalarTransport write:
DILUPBiCGStab:  Solving for T, Initial residual = 0.00161359, Final residual = 1.1362e-09, No Iterations 1

Time = 8.35s

ExecutionTime = 0.204616 s  ClockTime = 1 s

scalarTransport write:
DILUPBiCGStab:  Solving for T, Initial residual = 0.00160455, Final residual = 1.11496e-09, No Iterations 1

Time = 8.4s

ExecutionTime = 0.205158 s  ClockTime = 1 s

scalarTransport write:
DILUPBiCGStab:  Solving for T, Initial residual = 0.00159562, Final residual = 1.09389e-09, No Iterations 1

Time = 8.45s

ExecutionTime = 0.205704 s  ClockTime = 1 s

scalarTransport write:
DILUPBiCGStab:  Solving for T, Initial residual = 0.00158682, Final residual = 1.07318e-09, No Iterations 1

Time = 8.5s

ExecutionTime = 0.206248 s  ClockTime = 1 s

scalarTransport write:
DILUPBiCGStab:  Solving for T, Initial residual = 0.00157812, Final residual = 1.05365e-09, No Iterations 1

Time = 8.55s

ExecutionTime = 0.206795 s  ClockTime = 1 s

scalarTransport write:
DILUPBiCGStab:  Solving for T, Initial residual = 0.00156951, Final residual = 1.0344e-09, No Iterations 1

Time = 8.6s

ExecutionTime = 0.207346 s  ClockTime = 1 s

scalarTransport write:
DILUPBiCGStab:  Solving for T, Initial residual = 0.00156099, Final residual = 1.01536e-09, No Iterations 1

Time = 8.65s

ExecutionTime = 0.207891 s  ClockTime = 1 s

scalarTransport write:
DILUPBiCGStab:  Solving for T, Initial residual = 0.00155256, Final residual = 9.96474e-10, No Iterations 1

Time = 8.7s

ExecutionTime = 0.208439 s  ClockTime = 1 s

scalarTransport write:
DILUPBiCGStab:  Solving for T, Initial residual = 0.00154421, Final residual = 9.77736e-10, No Iterations 1

Time = 8.75s

ExecutionTime = 0.208982 s  ClockTime = 1 s

scalarTransport write:
DILUPBiCGStab:  Solving for T, Initial residual = 0.00153597, Final residual = 9.5919e-10, No Iterations 1

Time = 8.8s

ExecutionTime = 0.20953 s  ClockTime = 1 s

scalarTransport write:
DILUPBiCGStab:  Solving for T, Initial residual = 0.00152782, Final residual = 9.4087e-10, No Iterations 1

Time = 8.85s

ExecutionTime = 0.210086 s  ClockTime = 1 s

scalarTransport write:
DILUPBiCGStab:  Solving for T, Initial residual = 0.00151976, Final residual = 9.23187e-10, No Iterations 1

Time = 8.9s

ExecutionTime = 0.210638 s  ClockTime = 1 s

scalarTransport write:
DILUPBiCGStab:  Solving for T, Initial residual = 0.00151177, Final residual = 9.05785e-10, No Iterations 1

Time = 8.95s

ExecutionTime = 0.21118 s  ClockTime = 1 s

scalarTransport write:
DILUPBiCGStab:  Solving for T, Initial residual = 0.00150388, Final residual = 8.88667e-10, No Iterations 1

Time = 9s

ExecutionTime = 0.21173 s  ClockTime = 1 s

scalarTransport write:
DILUPBiCGStab:  Solving for T, Initial residual = 0.00149607, Final residual = 8.72099e-10, No Iterations 1

Time = 9.05s

ExecutionTime = 0.212277 s  ClockTime = 1 s

scalarTransport write:
DILUPBiCGStab:  Solving for T, Initial residual = 0.00148836, Final residual = 8.55732e-10, No Iterations 1

Time = 9.1s

ExecutionTime = 0.212823 s  ClockTime = 1 s

scalarTransport write:
DILUPBiCGStab:  Solving for T, Initial residual = 0.00148072, Final residual = 8.39522e-10, No Iterations 1

Time = 9.15s

ExecutionTime = 0.213378 s  ClockTime = 1 s

scalarTransport write:
DILUPBiCGStab:  Solving for T, Initial residual = 0.00147316, Final residual = 8.23917e-10, No Iterations 1

Time = 9.2s

ExecutionTime = 0.21392 s  ClockTime = 1 s

scalarTransport write:
DILUPBiCGStab:  Solving for T, Initial residual = 0.0014657, Final residual = 8.08973e-10, No Iterations 1

Time = 9.25s

ExecutionTime = 0.21447 s  ClockTime = 1 s

scalarTransport write:
DILUPBiCGStab:  Solving for T, Initial residual = 0.00145834, Final residual = 7.94168e-10, No Iterations 1

Time = 9.3s

ExecutionTime = 0.215011 s  ClockTime = 1 s

scalarTransport write:
DILUPBiCGStab:  Solving for T, Initial residual = 0.00145105, Final residual = 7.795e-10, No Iterations 1

Time = 9.35s

ExecutionTime = 0.215576 s  ClockTime = 1 s

scalarTransport write:
DILUPBiCGStab:  Solving for T, Initial residual = 0.00144382, Final residual = 9.97706e-07, No Iterations 1

Time = 9.4s

ExecutionTime = 0.216065 s  ClockTime = 1 s

scalarTransport write:
DILUPBiCGStab:  Solving for T, Initial residual = 0.00143667, Final residual = 9.85659e-07, No Iterations 1

Time = 9.45s

ExecutionTime = 0.216558 s  ClockTime = 1 s

scalarTransport write:
DILUPBiCGStab:  Solving for T, Initial residual = 0.00142959, Final residual = 9.7375e-07, No Iterations 1

Time = 9.5s

ExecutionTime = 0.217044 s  ClockTime = 1 s

scalarTransport write:
DILUPBiCGStab:  Solving for T, Initial residual = 0.00142261, Final residual = 9.62074e-07, No Iterations 1

Time = 9.55s

ExecutionTime = 0.217541 s  ClockTime = 1 s

scalarTransport write:
DILUPBiCGStab:  Solving for T, Initial residual = 0.0014157, Final residual = 9.50744e-07, No Iterations 1

Time = 9.6s

ExecutionTime = 0.21803 s  ClockTime = 1 s

scalarTransport write:
DILUPBiCGStab:  Solving for T, Initial residual = 0.00140886, Final residual = 9.39859e-07, No Iterations 1

Time = 9.65s

ExecutionTime = 0.218521 s  ClockTime = 1 s

scalarTransport write:
DILUPBiCGStab:  Solving for T, Initial residual = 0.00140211, Final residual = 9.29077e-07, No Iterations 1

Time = 9.7s

ExecutionTime = 0.21901 s  ClockTime = 1 s

scalarTransport write:
DILUPBiCGStab:  Solving for T, Initial residual = 0.00139541, Final residual = 9.18393e-07, No Iterations 1

Time = 9.75s

ExecutionTime = 0.219499 s  ClockTime = 1 s

scalarTransport write:
DILUPBiCGStab:  Solving for T, Initial residual = 0.00138877, Final residual = 9.07777e-07, No Iterations 1

Time = 9.8s

ExecutionTime = 0.219985 s  ClockTime = 1 s

scalarTransport write:
DILUPBiCGStab:  Solving for T, Initial residual = 0.00138219, Final residual = 8.97214e-07, No Iterations 1

Time = 9.85s

ExecutionTime = 0.22049 s  ClockTime = 1 s

scalarTransport write:
DILUPBiCGStab:  Solving for T, Initial residual = 0.00137567, Final residual = 8.86759e-07, No Iterations 1

Time = 9.9s

ExecutionTime = 0.220977 s  ClockTime = 1 s

scalarTransport write:
DILUPBiCGStab:  Solving for T, Initial residual = 0.00136921, Final residual = 8.76413e-07, No Iterations 1

Time = 9.95s

ExecutionTime = 0.221468 s  ClockTime = 1 s

scalarTransport write:
DILUPBiCGStab:  Solving for T, Initial residual = 0.00136283, Final residual = 8.66352e-07, No Iterations 1

Time = 10s

ExecutionTime = 0.223605 s  ClockTime = 1 s

scalarTransport write:
DILUPBiCGStab:  Solving for T, Initial residual = 0.00135652, Final residual = 8.56384e-07, No Iterations 1

Time = 10.05s

ExecutionTime = 0.224115 s  ClockTime = 1 s

scalarTransport write:
DILUPBiCGStab:  Solving for T, Initial residual = 0.00135027, Final residual = 8.4654e-07, No Iterations 1

Time = 10.1s

ExecutionTime = 0.224613 s  ClockTime = 1 s

scalarTransport write:
DILUPBiCGStab:  Solving for T, Initial residual = 0.00134407, Final residual = 8.36771e-07, No Iterations 1

Time = 10.15s

ExecutionTime = 0.225103 s  ClockTime = 1 s

scalarTransport write:
DILUPBiCGStab:  Solving for T, Initial residual = 0.00133793, Final residual = 8.27079e-07, No Iterations 1

Time = 10.2s

ExecutionTime = 0.225602 s  ClockTime = 1 s

scalarTransport write:
DILUPBiCGStab:  Solving for T, Initial residual = 0.00133186, Final residual = 8.17555e-07, No Iterations 1

Time = 10.25s

ExecutionTime = 0.226109 s  ClockTime = 1 s

scalarTransport write:
DILUPBiCGStab:  Solving for T, Initial residual = 0.00132584, Final residual = 8.08264e-07, No Iterations 1

Time = 10.3s

ExecutionTime = 0.226613 s  ClockTime = 1 s

scalarTransport write:
DILUPBiCGStab:  Solving for T, Initial residual = 0.00131989, Final residual = 7.99056e-07, No Iterations 1

Time = 10.35s

ExecutionTime = 0.227115 s  ClockTime = 1 s

scalarTransport write:
DILUPBiCGStab:  Solving for T, Initial residual = 0.001314, Final residual = 7.90061e-07, No Iterations 1

Time = 10.4s

ExecutionTime = 0.227611 s  ClockTime = 1 s

scalarTransport write:
DILUPBiCGStab:  Solving for T, Initial residual = 0.00130816, Final residual = 7.81168e-07, No Iterations 1

Time = 10.45s

ExecutionTime = 0.228098 s  ClockTime = 1 s

scalarTransport write:
DILUPBiCGStab:  Solving for T, Initial residual = 0.00130236, Final residual = 7.7235e-07, No Iterations 1

Time = 10.5s

ExecutionTime = 0.228591 s  ClockTime = 1 s

scalarTransport write:
DILUPBiCGStab:  Solving for T, Initial residual = 0.00129662, Final residual = 7.63783e-07, No Iterations 1

Time = 10.55s

ExecutionTime = 0.229077 s  ClockTime = 1 s

scalarTransport write:
DILUPBiCGStab:  Solving for T, Initial residual = 0.00129092, Final residual = 7.55396e-07, No Iterations 1

Time = 10.6s

ExecutionTime = 0.229569 s  ClockTime = 1 s

scalarTransport write:
DILUPBiCGStab:  Solving for T, Initial residual = 0.00128528, Final residual = 7.47132e-07, No Iterations 1

Time = 10.65s

ExecutionTime = 0.230055 s  ClockTime = 1 s

scalarTransport write:
DILUPBiCGStab:  Solving for T, Initial residual = 0.0012797, Final residual = 7.38982e-07, No Iterations 1

Time = 10.7s

ExecutionTime = 0.230546 s  ClockTime = 1 s

scalarTransport write:
DILUPBiCGStab:  Solving for T, Initial residual = 0.00127418, Final residual = 7.30898e-07, No Iterations 1

Time = 10.75s

ExecutionTime = 0.231033 s  ClockTime = 1 s

scalarTransport write:
DILUPBiCGStab:  Solving for T, Initial residual = 0.00126872, Final residual = 7.22882e-07, No Iterations 1

Time = 10.8s

ExecutionTime = 0.231524 s  ClockTime = 1 s

scalarTransport write:
DILUPBiCGStab:  Solving for T, Initial residual = 0.0012633, Final residual = 7.14933e-07, No Iterations 1

Time = 10.85s

ExecutionTime = 0.232021 s  ClockTime = 1 s

scalarTransport write:
DILUPBiCGStab:  Solving for T, Initial residual = 0.00125793, Final residual = 7.07051e-07, No Iterations 1

Time = 10.9s

ExecutionTime = 0.232514 s  ClockTime = 1 s

scalarTransport write:
DILUPBiCGStab:  Solving for T, Initial residual = 0.0012526, Final residual = 6.99283e-07, No Iterations 1

Time = 10.95s

ExecutionTime = 0.233001 s  ClockTime = 1 s

scalarTransport write:
DILUPBiCGStab:  Solving for T, Initial residual = 0.00124733, Final residual = 6.91657e-07, No Iterations 1

Time = 11s

ExecutionTime = 0.233494 s  ClockTime = 1 s

scalarTransport write:
DILUPBiCGStab:  Solving for T, Initial residual = 0.0012421, Final residual = 6.84106e-07, No Iterations 1

Time = 11.05s

ExecutionTime = 0.233981 s  ClockTime = 1 s

scalarTransport write:
DILUPBiCGStab:  Solving for T, Initial residual = 0.00123692, Final residual = 6.76633e-07, No Iterations 1

Time = 11.1s

ExecutionTime = 0.234472 s  ClockTime = 1 s

scalarTransport write:
DILUPBiCGStab:  Solving for T, Initial residual = 0.0012318, Final residual = 6.69244e-07, No Iterations 1

Time = 11.15s

ExecutionTime = 0.234959 s  ClockTime = 1 s

scalarTransport write:
DILUPBiCGStab:  Solving for T, Initial residual = 0.00122674, Final residual = 6.6194e-07, No Iterations 1

Time = 11.2s

ExecutionTime = 0.235451 s  ClockTime = 1 s

scalarTransport write:
DILUPBiCGStab:  Solving for T, Initial residual = 0.00122172, Final residual = 6.54719e-07, No Iterations 1

Time = 11.25s

ExecutionTime = 0.23594 s  ClockTime = 1 s

scalarTransport write:
DILUPBiCGStab:  Solving for T, Initial residual = 0.00121674, Final residual = 6.47605e-07, No Iterations 1

Time = 11.3s

ExecutionTime = 0.236438 s  ClockTime = 1 s

scalarTransport write:
DILUPBiCGStab:  Solving for T, Initial residual = 0.0012118, Final residual = 6.40726e-07, No Iterations 1

Time = 11.35s

ExecutionTime = 0.236936 s  ClockTime = 1 s

scalarTransport write:
DILUPBiCGStab:  Solving for T, Initial residual = 0.0012069, Final residual = 6.33971e-07, No Iterations 1

Time = 11.4s

ExecutionTime = 0.237429 s  ClockTime = 1 s

scalarTransport write:
DILUPBiCGStab:  Solving for T, Initial residual = 0.00120205, Final residual = 6.27297e-07, No Iterations 1

Time = 11.45s

ExecutionTime = 0.237917 s  ClockTime = 1 s

scalarTransport write:
DILUPBiCGStab:  Solving for T, Initial residual = 0.00119724, Final residual = 6.20695e-07, No Iterations 1

Time = 11.5s

ExecutionTime = 0.238408 s  ClockTime = 1 s

scalarTransport write:
DILUPBiCGStab:  Solving for T, Initial residual = 0.00119248, Final residual = 6.14222e-07, No Iterations 1

Time = 11.55s

ExecutionTime = 0.238897 s  ClockTime = 1 s

scalarTransport write:
DILUPBiCGStab:  Solving for T, Initial residual = 0.00118776, Final residual = 6.0783e-07, No Iterations 1

Time = 11.6s

ExecutionTime = 0.23939 s  ClockTime = 1 s

scalarTransport write:
DILUPBiCGStab:  Solving for T, Initial residual = 0.00118308, Final residual = 6.01562e-07, No Iterations 1

Time = 11.65s

ExecutionTime = 0.239876 s  ClockTime = 1 s

scalarTransport write:
DILUPBiCGStab:  Solving for T, Initial residual = 0.00117844, Final residual = 5.95393e-07, No Iterations 1

Time = 11.7s

ExecutionTime = 0.240368 s  ClockTime = 1 s

scalarTransport write:
DILUPBiCGStab:  Solving for T, Initial residual = 0.00117382, Final residual = 5.89304e-07, No Iterations 1

Time = 11.75s

ExecutionTime = 0.240856 s  ClockTime = 1 s

scalarTransport write:
DILUPBiCGStab:  Solving for T, Initial residual = 0.00116924, Final residual = 5.83331e-07, No Iterations 1

Time = 11.8s

ExecutionTime = 0.241346 s  ClockTime = 1 s

scalarTransport write:
DILUPBiCGStab:  Solving for T, Initial residual = 0.00116469, Final residual = 5.77456e-07, No Iterations 1

Time = 11.85s

ExecutionTime = 0.241844 s  ClockTime = 1 s

scalarTransport write:
DILUPBiCGStab:  Solving for T, Initial residual = 0.00116018, Final residual = 5.71649e-07, No Iterations 1

Time = 11.9s

ExecutionTime = 0.242337 s  ClockTime = 1 s

scalarTransport write:
DILUPBiCGStab:  Solving for T, Initial residual = 0.0011557, Final residual = 5.65915e-07, No Iterations 1

Time = 11.95s

ExecutionTime = 0.242824 s  ClockTime = 1 s

scalarTransport write:
DILUPBiCGStab:  Solving for T, Initial residual = 0.00115127, Final residual = 5.6028e-07, No Iterations 1

Time = 12s

ExecutionTime = 0.243316 s  ClockTime = 1 s

scalarTransport write:
DILUPBiCGStab:  Solving for T, Initial residual = 0.00114687, Final residual = 5.54713e-07, No Iterations 1

Time = 12.05s

ExecutionTime = 0.243803 s  ClockTime = 1 s

scalarTransport write:
DILUPBiCGStab:  Solving for T, Initial residual = 0.00114251, Final residual = 5.49218e-07, No Iterations 1

Time = 12.1s

ExecutionTime = 0.244294 s  ClockTime = 1 s

scalarTransport write:
DILUPBiCGStab:  Solving for T, Initial residual = 0.00113819, Final residual = 5.43795e-07, No Iterations 1

Time = 12.15s

ExecutionTime = 0.244781 s  ClockTime = 1 s

scalarTransport write:
DILUPBiCGStab:  Solving for T, Initial residual = 0.00113392, Final residual = 5.38443e-07, No Iterations 1

Time = 12.2s

ExecutionTime = 0.245273 s  ClockTime = 1 s

scalarTransport write:
DILUPBiCGStab:  Solving for T, Initial residual = 0.00112968, Final residual = 5.33164e-07, No Iterations 1

Time = 12.25s

ExecutionTime = 0.245764 s  ClockTime = 1 s

scalarTransport write:
DILUPBiCGStab:  Solving for T, Initial residual = 0.00112549, Final residual = 5.27982e-07, No Iterations 1

Time = 12.3s

ExecutionTime = 0.24625 s  ClockTime = 1 s

scalarTransport write:
DILUPBiCGStab:  Solving for T, Initial residual = 0.00112133, Final residual = 5.22892e-07, No Iterations 1

Time = 12.35s

ExecutionTime = 0.246758 s  ClockTime = 1 s

scalarTransport write:
DILUPBiCGStab:  Solving for T, Initial residual = 0.00111719, Final residual = 5.17865e-07, No Iterations 1

Time = 12.4s

ExecutionTime = 0.247246 s  ClockTime = 1 s

scalarTransport write:
DILUPBiCGStab:  Solving for T, Initial residual = 0.00111309, Final residual = 5.12903e-07, No Iterations 1

Time = 12.45s

ExecutionTime = 0.247739 s  ClockTime = 1 s

scalarTransport write:
DILUPBiCGStab:  Solving for T, Initial residual = 0.00110901, Final residual = 5.08036e-07, No Iterations 1

Time = 12.5s

ExecutionTime = 0.248224 s  ClockTime = 1 s

scalarTransport write:
DILUPBiCGStab:  Solving for T, Initial residual = 0.00110497, Final residual = 5.03242e-07, No Iterations 1

Time = 12.55s

ExecutionTime = 0.248717 s  ClockTime = 1 s

scalarTransport write:
DILUPBiCGStab:  Solving for T, Initial residual = 0.00110096, Final residual = 4.98533e-07, No Iterations 1

Time = 12.6s

ExecutionTime = 0.249202 s  ClockTime = 1 s

scalarTransport write:
DILUPBiCGStab:  Solving for T, Initial residual = 0.00109698, Final residual = 4.93887e-07, No Iterations 1

Time = 12.65s

ExecutionTime = 0.249693 s  ClockTime = 1 s

scalarTransport write:
DILUPBiCGStab:  Solving for T, Initial residual = 0.00109303, Final residual = 4.89303e-07, No Iterations 1

Time = 12.7s

ExecutionTime = 0.250179 s  ClockTime = 1 s

scalarTransport write:
DILUPBiCGStab:  Solving for T, Initial residual = 0.00108911, Final residual = 4.84781e-07, No Iterations 1

Time = 12.75s

ExecutionTime = 0.250672 s  ClockTime = 1 s

scalarTransport write:
DILUPBiCGStab:  Solving for T, Initial residual = 0.00108523, Final residual = 4.80324e-07, No Iterations 1

Time = 12.8s

ExecutionTime = 0.251157 s  ClockTime = 1 s

scalarTransport write:
DILUPBiCGStab:  Solving for T, Initial residual = 0.00108138, Final residual = 4.75929e-07, No Iterations 1

Time = 12.85s

ExecutionTime = 0.25166 s  ClockTime = 1 s

scalarTransport write:
DILUPBiCGStab:  Solving for T, Initial residual = 0.00107756, Final residual = 4.71596e-07, No Iterations 1

Time = 12.9s

ExecutionTime = 0.252147 s  ClockTime = 1 s

scalarTransport write:
DILUPBiCGStab:  Solving for T, Initial residual = 0.00107378, Final residual = 4.67329e-07, No Iterations 1

Time = 12.95s

ExecutionTime = 0.252639 s  ClockTime = 1 s

scalarTransport write:
DILUPBiCGStab:  Solving for T, Initial residual = 0.00107003, Final residual = 4.63135e-07, No Iterations 1

Time = 13s

ExecutionTime = 0.253126 s  ClockTime = 1 s

scalarTransport write:
DILUPBiCGStab:  Solving for T, Initial residual = 0.00106631, Final residual = 4.59022e-07, No Iterations 1

Time = 13.05s

ExecutionTime = 0.253618 s  ClockTime = 1 s

scalarTransport write:
DILUPBiCGStab:  Solving for T, Initial residual = 0.00106262, Final residual = 4.54969e-07, No Iterations 1

Time = 13.1s

ExecutionTime = 0.254105 s  ClockTime = 1 s

scalarTransport write:
DILUPBiCGStab:  Solving for T, Initial residual = 0.00105896, Final residual = 4.50971e-07, No Iterations 1

Time = 13.15s

ExecutionTime = 0.254596 s  ClockTime = 1 s

scalarTransport write:
DILUPBiCGStab:  Solving for T, Initial residual = 0.00105532, Final residual = 4.47029e-07, No Iterations 1

Time = 13.2s

ExecutionTime = 0.255082 s  ClockTime = 1 s

scalarTransport write:
DILUPBiCGStab:  Solving for T, Initial residual = 0.00105171, Final residual = 4.43139e-07, No Iterations 1

Time = 13.25s

ExecutionTime = 0.255574 s  ClockTime = 1 s

scalarTransport write:
DILUPBiCGStab:  Solving for T, Initial residual = 0.00104812, Final residual = 4.39302e-07, No Iterations 1

Time = 13.3s

ExecutionTime = 0.25606 s  ClockTime = 1 s

scalarTransport write:
DILUPBiCGStab:  Solving for T, Initial residual = 0.00104456, Final residual = 4.35519e-07, No Iterations 1

Time = 13.35s

ExecutionTime = 0.256563 s  ClockTime = 1 s

scalarTransport write:
DILUPBiCGStab:  Solving for T, Initial residual = 0.00104102, Final residual = 4.31789e-07, No Iterations 1

Time = 13.4s

ExecutionTime = 0.257051 s  ClockTime = 1 s

scalarTransport write:
DILUPBiCGStab:  Solving for T, Initial residual = 0.00103752, Final residual = 4.28114e-07, No Iterations 1

Time = 13.45s

ExecutionTime = 0.257549 s  ClockTime = 1 s

scalarTransport write:
DILUPBiCGStab:  Solving for T, Initial residual = 0.00103404, Final residual = 4.24492e-07, No Iterations 1

Time = 13.5s

ExecutionTime = 0.258038 s  ClockTime = 1 s

scalarTransport write:
DILUPBiCGStab:  Solving for T, Initial residual = 0.00103058, Final residual = 4.20918e-07, No Iterations 1

Time = 13.55s

ExecutionTime = 0.258529 s  ClockTime = 1 s

scalarTransport write:
DILUPBiCGStab:  Solving for T, Initial residual = 0.00102714, Final residual = 4.17398e-07, No Iterations 1

Time = 13.6s

ExecutionTime = 0.259018 s  ClockTime = 1 s

scalarTransport write:
DILUPBiCGStab:  Solving for T, Initial residual = 0.00102372, Final residual = 4.13936e-07, No Iterations 1

Time = 13.65s

ExecutionTime = 0.259511 s  ClockTime = 1 s

scalarTransport write:
DILUPBiCGStab:  Solving for T, Initial residual = 0.00102033, Final residual = 4.1053e-07, No Iterations 1

Time = 13.7s

ExecutionTime = 0.260029 s  ClockTime = 1 s

scalarTransport write:
DILUPBiCGStab:  Solving for T, Initial residual = 0.00101697, Final residual = 4.07176e-07, No Iterations 1

Time = 13.75s

ExecutionTime = 0.260636 s  ClockTime = 1 s

scalarTransport write:
DILUPBiCGStab:  Solving for T, Initial residual = 0.00101363, Final residual = 4.03867e-07, No Iterations 1

Time = 13.8s

ExecutionTime = 0.261277 s  ClockTime = 1 s

scalarTransport write:
DILUPBiCGStab:  Solving for T, Initial residual = 0.00101032, Final residual = 4.00603e-07, No Iterations 1

Time = 13.85s

ExecutionTime = 0.261854 s  ClockTime = 1 s

scalarTransport write:
DILUPBiCGStab:  Solving for T, Initial residual = 0.00100702, Final residual = 3.97381e-07, No Iterations 1

Time = 13.9s

ExecutionTime = 0.262441 s  ClockTime = 1 s

scalarTransport write:
DILUPBiCGStab:  Solving for T, Initial residual = 0.00100375, Final residual = 3.94211e-07, No Iterations 1

Time = 13.95s

ExecutionTime = 0.263017 s  ClockTime = 1 s

scalarTransport write:
DILUPBiCGStab:  Solving for T, Initial residual = 0.00100051, Final residual = 3.91105e-07, No Iterations 1

Time = 14s

ExecutionTime = 0.26364 s  ClockTime = 1 s

scalarTransport write:
DILUPBiCGStab:  Solving for T, Initial residual = 0.00099729, Final residual = 3.88057e-07, No Iterations 1

Time = 14.05s

ExecutionTime = 0.264215 s  ClockTime = 1 s

scalarTransport write:
DILUPBiCGStab:  Solving for T, Initial residual = 0.000994097, Final residual = 3.8506e-07, No Iterations 1

Time = 14.1s

ExecutionTime = 0.264772 s  ClockTime = 1 s

scalarTransport write:
DILUPBiCGStab:  Solving for T, Initial residual = 0.000990928, Final residual = 3.82121e-07, No Iterations 1

Time = 14.15s

ExecutionTime = 0.265339 s  ClockTime = 1 s

scalarTransport write:
DILUPBiCGStab:  Solving for T, Initial residual = 0.000987773, Final residual = 3.79226e-07, No Iterations 1

Time = 14.2s

ExecutionTime = 0.265878 s  ClockTime = 1 s

scalarTransport write:
DILUPBiCGStab:  Solving for T, Initial residual = 0.000984635, Final residual = 3.76368e-07, No Iterations 1

Time = 14.25s

ExecutionTime = 0.266415 s  ClockTime = 1 s

scalarTransport write:
DILUPBiCGStab:  Solving for T, Initial residual = 0.000981519, Final residual = 3.73548e-07, No Iterations 1

Time = 14.3s

ExecutionTime = 0.266935 s  ClockTime = 1 s

scalarTransport write:
DILUPBiCGStab:  Solving for T, Initial residual = 0.000978424, Final residual = 3.70764e-07, No Iterations 1

Time = 14.35s

ExecutionTime = 0.267481 s  ClockTime = 1 s

scalarTransport write:
DILUPBiCGStab:  Solving for T, Initial residual = 0.000975349, Final residual = 3.68025e-07, No Iterations 1

Time = 14.4s

ExecutionTime = 0.267993 s  ClockTime = 1 s

scalarTransport write:
DILUPBiCGStab:  Solving for T, Initial residual = 0.000972296, Final residual = 3.65325e-07, No Iterations 1

Time = 14.45s

ExecutionTime = 0.268509 s  ClockTime = 1 s

scalarTransport write:
DILUPBiCGStab:  Solving for T, Initial residual = 0.000969263, Final residual = 3.62665e-07, No Iterations 1

Time = 14.5s

ExecutionTime = 0.269025 s  ClockTime = 1 s

scalarTransport write:
DILUPBiCGStab:  Solving for T, Initial residual = 0.000966253, Final residual = 3.60059e-07, No Iterations 1

Time = 14.55s

ExecutionTime = 0.269545 s  ClockTime = 1 s

scalarTransport write:
DILUPBiCGStab:  Solving for T, Initial residual = 0.000963269, Final residual = 3.57489e-07, No Iterations 1

Time = 14.6s

ExecutionTime = 0.270058 s  ClockTime = 1 s

scalarTransport write:
DILUPBiCGStab:  Solving for T, Initial residual = 0.000960304, Final residual = 3.54951e-07, No Iterations 1

Time = 14.65s

ExecutionTime = 0.270584 s  ClockTime = 1 s

scalarTransport write:
DILUPBiCGStab:  Solving for T, Initial residual = 0.000957356, Final residual = 3.52439e-07, No Iterations 1

Time = 14.7s

ExecutionTime = 0.271177 s  ClockTime = 1 s

scalarTransport write:
DILUPBiCGStab:  Solving for T, Initial residual = 0.00095443, Final residual = 3.49957e-07, No Iterations 1

Time = 14.75s

ExecutionTime = 0.271733 s  ClockTime = 1 s

scalarTransport write:
DILUPBiCGStab:  Solving for T, Initial residual = 0.000951526, Final residual = 3.47502e-07, No Iterations 1

Time = 14.8s

ExecutionTime = 0.272244 s  ClockTime = 1 s

scalarTransport write:
DILUPBiCGStab:  Solving for T, Initial residual = 0.000948638, Final residual = 3.45076e-07, No Iterations 1

Time = 14.85s

ExecutionTime = 0.272782 s  ClockTime = 1 s

scalarTransport write:
DILUPBiCGStab:  Solving for T, Initial residual = 0.000945767, Final residual = 3.42675e-07, No Iterations 1

Time = 14.9s

ExecutionTime = 0.273295 s  ClockTime = 1 s

scalarTransport write:
DILUPBiCGStab:  Solving for T, Initial residual = 0.000942918, Final residual = 3.40305e-07, No Iterations 1

Time = 14.95s

ExecutionTime = 0.273801 s  ClockTime = 1 s

scalarTransport write:
DILUPBiCGStab:  Solving for T, Initial residual = 0.000940091, Final residual = 3.37972e-07, No Iterations 1

Time = 15s

ExecutionTime = 0.276016 s  ClockTime = 1 s

scalarTransport write:
DILUPBiCGStab:  Solving for T, Initial residual = 0.000937289, Final residual = 3.35679e-07, No Iterations 1

Time = 15.05s

ExecutionTime = 0.27654 s  ClockTime = 1 s

scalarTransport write:
DILUPBiCGStab:  Solving for T, Initial residual = 0.000934506, Final residual = 3.33417e-07, No Iterations 1

Time = 15.1s

ExecutionTime = 0.27704 s  ClockTime = 1 s

scalarTransport write:
DILUPBiCGStab:  Solving for T, Initial residual = 0.000931738, Final residual = 3.31178e-07, No Iterations 1

Time = 15.15s

ExecutionTime = 0.277542 s  ClockTime = 1 s

scalarTransport write:
DILUPBiCGStab:  Solving for T, Initial residual = 0.000928988, Final residual = 3.28958e-07, No Iterations 1

Time = 15.2s

ExecutionTime = 0.278037 s  ClockTime = 1 s

scalarTransport write:
DILUPBiCGStab:  Solving for T, Initial residual = 0.000926259, Final residual = 3.26758e-07, No Iterations 1

Time = 15.25s

ExecutionTime = 0.278537 s  ClockTime = 1 s

scalarTransport write:
DILUPBiCGStab:  Solving for T, Initial residual = 0.000923549, Final residual = 3.24578e-07, No Iterations 1

Time = 15.3s

ExecutionTime = 0.279032 s  ClockTime = 1 s

scalarTransport write:
DILUPBiCGStab:  Solving for T, Initial residual = 0.000920857, Final residual = 3.22416e-07, No Iterations 1

Time = 15.35s

ExecutionTime = 0.279577 s  ClockTime = 1 s

scalarTransport write:
DILUPBiCGStab:  Solving for T, Initial residual = 0.000918186, Final residual = 3.20272e-07, No Iterations 1

Time = 15.4s

ExecutionTime = 0.280092 s  ClockTime = 1 s

scalarTransport write:
DILUPBiCGStab:  Solving for T, Initial residual = 0.00091553, Final residual = 3.18145e-07, No Iterations 1

Time = 15.45s

ExecutionTime = 0.280627 s  ClockTime = 1 s

scalarTransport write:
DILUPBiCGStab:  Solving for T, Initial residual = 0.000912887, Final residual = 3.16036e-07, No Iterations 1

Time = 15.5s

ExecutionTime = 0.281129 s  ClockTime = 1 s

scalarTransport write:
DILUPBiCGStab:  Solving for T, Initial residual = 0.000910266, Final residual = 3.13956e-07, No Iterations 1

Time = 15.55s

ExecutionTime = 0.281645 s  ClockTime = 1 s

scalarTransport write:
DILUPBiCGStab:  Solving for T, Initial residual = 0.000907668, Final residual = 3.11892e-07, No Iterations 1

Time = 15.6s

ExecutionTime = 0.282142 s  ClockTime = 1 s

scalarTransport write:
DILUPBiCGStab:  Solving for T, Initial residual = 0.000905088, Final residual = 3.09876e-07, No Iterations 1

Time = 15.65s

ExecutionTime = 0.282652 s  ClockTime = 1 s

scalarTransport write:
DILUPBiCGStab:  Solving for T, Initial residual = 0.000902519, Final residual = 3.07905e-07, No Iterations 1

Time = 15.7s

ExecutionTime = 0.283155 s  ClockTime = 1 s

scalarTransport write:
DILUPBiCGStab:  Solving for T, Initial residual = 0.000899959, Final residual = 3.05944e-07, No Iterations 1

Time = 15.75s

ExecutionTime = 0.283663 s  ClockTime = 1 s

scalarTransport write:
DILUPBiCGStab:  Solving for T, Initial residual = 0.000897415, Final residual = 3.04014e-07, No Iterations 1

Time = 15.8s

ExecutionTime = 0.284213 s  ClockTime = 1 s

scalarTransport write:
DILUPBiCGStab:  Solving for T, Initial residual = 0.000894888, Final residual = 3.02111e-07, No Iterations 1

Time = 15.85s

ExecutionTime = 0.284786 s  ClockTime = 1 s

scalarTransport write:
DILUPBiCGStab:  Solving for T, Initial residual = 0.000892377, Final residual = 3.00225e-07, No Iterations 1

Time = 15.9s

ExecutionTime = 0.285318 s  ClockTime = 1 s

scalarTransport write:
DILUPBiCGStab:  Solving for T, Initial residual = 0.000889881, Final residual = 2.98358e-07, No Iterations 1

Time = 15.95s

ExecutionTime = 0.285836 s  ClockTime = 1 s

scalarTransport write:
DILUPBiCGStab:  Solving for T, Initial residual = 0.000887401, Final residual = 2.96501e-07, No Iterations 1

Time = 16s

ExecutionTime = 0.286359 s  ClockTime = 1 s

scalarTransport write:
DILUPBiCGStab:  Solving for T, Initial residual = 0.000884936, Final residual = 2.94653e-07, No Iterations 1

Time = 16.05s

ExecutionTime = 0.286897 s  ClockTime = 1 s

scalarTransport write:
DILUPBiCGStab:  Solving for T, Initial residual = 0.000882488, Final residual = 2.92832e-07, No Iterations 1

Time = 16.1s

ExecutionTime = 0.287441 s  ClockTime = 1 s

scalarTransport write:
DILUPBiCGStab:  Solving for T, Initial residual = 0.000880057, Final residual = 2.91033e-07, No Iterations 1

Time = 16.15s

ExecutionTime = 0.287972 s  ClockTime = 1 s

scalarTransport write:
DILUPBiCGStab:  Solving for T, Initial residual = 0.000877639, Final residual = 2.8924e-07, No Iterations 1

Time = 16.2s

ExecutionTime = 0.2886 s  ClockTime = 1 s

scalarTransport write:
DILUPBiCGStab:  Solving for T, Initial residual = 0.000875229, Final residual = 2.8745e-07, No Iterations 1

Time = 16.25s

ExecutionTime = 0.289317 s  ClockTime = 1 s

scalarTransport write:
DILUPBiCGStab:  Solving for T, Initial residual = 0.000872832, Final residual = 2.85666e-07, No Iterations 1

Time = 16.3s

ExecutionTime = 0.289898 s  ClockTime = 1 s

scalarTransport write:
DILUPBiCGStab:  Solving for T, Initial residual = 0.000870449, Final residual = 2.83889e-07, No Iterations 1

Time = 16.35s

ExecutionTime = 0.290494 s  ClockTime = 1 s

scalarTransport write:
DILUPBiCGStab:  Solving for T, Initial residual = 0.00086808, Final residual = 2.82128e-07, No Iterations 1

Time = 16.4s

ExecutionTime = 0.291055 s  ClockTime = 1 s

scalarTransport write:
DILUPBiCGStab:  Solving for T, Initial residual = 0.000865725, Final residual = 2.80378e-07, No Iterations 1

Time = 16.45s

ExecutionTime = 0.291626 s  ClockTime = 1 s

scalarTransport write:
DILUPBiCGStab:  Solving for T, Initial residual = 0.000863385, Final residual = 2.78643e-07, No Iterations 1

Time = 16.5s

ExecutionTime = 0.292157 s  ClockTime = 1 s

scalarTransport write:
DILUPBiCGStab:  Solving for T, Initial residual = 0.000861062, Final residual = 2.76932e-07, No Iterations 1

Time = 16.55s

ExecutionTime = 0.292694 s  ClockTime = 1 s

scalarTransport write:
DILUPBiCGStab:  Solving for T, Initial residual = 0.000858752, Final residual = 2.75225e-07, No Iterations 1

Time = 16.6s

ExecutionTime = 0.293203 s  ClockTime = 1 s

scalarTransport write:
DILUPBiCGStab:  Solving for T, Initial residual = 0.000856456, Final residual = 2.73526e-07, No Iterations 1

Time = 16.65s

ExecutionTime = 0.293728 s  ClockTime = 1 s

scalarTransport write:
DILUPBiCGStab:  Solving for T, Initial residual = 0.000854175, Final residual = 2.71841e-07, No Iterations 1

Time = 16.7s

ExecutionTime = 0.294235 s  ClockTime = 1 s

scalarTransport write:
DILUPBiCGStab:  Solving for T, Initial residual = 0.00085191, Final residual = 2.70159e-07, No Iterations 1

Time = 16.75s

ExecutionTime = 0.294749 s  ClockTime = 1 s

scalarTransport write:
DILUPBiCGStab:  Solving for T, Initial residual = 0.000849661, Final residual = 2.68482e-07, No Iterations 1

Time = 16.8s

ExecutionTime = 0.295257 s  ClockTime = 1 s

scalarTransport write:
DILUPBiCGStab:  Solving for T, Initial residual = 0.000847427, Final residual = 2.66807e-07, No Iterations 1

Time = 16.85s

ExecutionTime = 0.295808 s  ClockTime = 1 s

scalarTransport write:
DILUPBiCGStab:  Solving for T, Initial residual = 0.000845211, Final residual = 2.6514e-07, No Iterations 1

Time = 16.9s

ExecutionTime = 0.296548 s  ClockTime = 1 s

scalarTransport write:
DILUPBiCGStab:  Solving for T, Initial residual = 0.000843011, Final residual = 2.63477e-07, No Iterations 1

Time = 16.95s

ExecutionTime = 0.297151 s  ClockTime = 1 s

scalarTransport write:
DILUPBiCGStab:  Solving for T, Initial residual = 0.00084082, Final residual = 2.61819e-07, No Iterations 1

Time = 17s

ExecutionTime = 0.297711 s  ClockTime = 1 s

scalarTransport write:
DILUPBiCGStab:  Solving for T, Initial residual = 0.000838636, Final residual = 2.60179e-07, No Iterations 1

Time = 17.05s

ExecutionTime = 0.298207 s  ClockTime = 1 s

scalarTransport write:
DILUPBiCGStab:  Solving for T, Initial residual = 0.000836461, Final residual = 2.58547e-07, No Iterations 1

Time = 17.1s

ExecutionTime = 0.298738 s  ClockTime = 1 s

scalarTransport write:
DILUPBiCGStab:  Solving for T, Initial residual = 0.000834291, Final residual = 2.56934e-07, No Iterations 1

Time = 17.15s

ExecutionTime = 0.299242 s  ClockTime = 1 s

scalarTransport write:
DILUPBiCGStab:  Solving for T, Initial residual = 0.000832131, Final residual = 2.5533e-07, No Iterations 1

Time = 17.2s

ExecutionTime = 0.299761 s  ClockTime = 1 s

scalarTransport write:
DILUPBiCGStab:  Solving for T, Initial residual = 0.000829986, Final residual = 2.53735e-07, No Iterations 1

Time = 17.25s

ExecutionTime = 0.300274 s  ClockTime = 1 s

scalarTransport write:
DILUPBiCGStab:  Solving for T, Initial residual = 0.000827855, Final residual = 2.52168e-07, No Iterations 1

Time = 17.3s

ExecutionTime = 0.300785 s  ClockTime = 1 s

scalarTransport write:
DILUPBiCGStab:  Solving for T, Initial residual = 0.000825739, Final residual = 2.50613e-07, No Iterations 1

Time = 17.35s

ExecutionTime = 0.301316 s  ClockTime = 1 s

scalarTransport write:
DILUPBiCGStab:  Solving for T, Initial residual = 0.000823638, Final residual = 2.49074e-07, No Iterations 1

Time = 17.4s

ExecutionTime = 0.301825 s  ClockTime = 1 s

scalarTransport write:
DILUPBiCGStab:  Solving for T, Initial residual = 0.000821549, Final residual = 2.47533e-07, No Iterations 1

Time = 17.45s

ExecutionTime = 0.302338 s  ClockTime = 1 s

scalarTransport write:
DILUPBiCGStab:  Solving for T, Initial residual = 0.000819472, Final residual = 2.45992e-07, No Iterations 1

Time = 17.5s

ExecutionTime = 0.302842 s  ClockTime = 1 s

scalarTransport write:
DILUPBiCGStab:  Solving for T, Initial residual = 0.000817409, Final residual = 2.4445e-07, No Iterations 1

Time = 17.55s

ExecutionTime = 0.303355 s  ClockTime = 1 s

scalarTransport write:
DILUPBiCGStab:  Solving for T, Initial residual = 0.000815362, Final residual = 2.42914e-07, No Iterations 1

Time = 17.6s

ExecutionTime = 0.303861 s  ClockTime = 1 s

scalarTransport write:
DILUPBiCGStab:  Solving for T, Initial residual = 0.00081333, Final residual = 2.41385e-07, No Iterations 1

Time = 17.65s

ExecutionTime = 0.304372 s  ClockTime = 1 s

scalarTransport write:
DILUPBiCGStab:  Solving for T, Initial residual = 0.000811315, Final residual = 2.39868e-07, No Iterations 1

Time = 17.7s

ExecutionTime = 0.304891 s  ClockTime = 1 s

scalarTransport write:
DILUPBiCGStab:  Solving for T, Initial residual = 0.000809313, Final residual = 2.38363e-07, No Iterations 1

Time = 17.75s

ExecutionTime = 0.305404 s  ClockTime = 1 s

scalarTransport write:
DILUPBiCGStab:  Solving for T, Initial residual = 0.00080732, Final residual = 2.36858e-07, No Iterations 1

Time = 17.8s

ExecutionTime = 0.305916 s  ClockTime = 1 s

scalarTransport write:
DILUPBiCGStab:  Solving for T, Initial residual = 0.000805338, Final residual = 2.35353e-07, No Iterations 1

Time = 17.85s

ExecutionTime = 0.306434 s  ClockTime = 1 s

scalarTransport write:
DILUPBiCGStab:  Solving for T, Initial residual = 0.000803369, Final residual = 2.3385e-07, No Iterations 1

Time = 17.9s

ExecutionTime = 0.306952 s  ClockTime = 1 s

scalarTransport write:
DILUPBiCGStab:  Solving for T, Initial residual = 0.00080141, Final residual = 2.32354e-07, No Iterations 1

Time = 17.95s

ExecutionTime = 0.307466 s  ClockTime = 1 s

scalarTransport write:
DILUPBiCGStab:  Solving for T, Initial residual = 0.00079946, Final residual = 2.30856e-07, No Iterations 1

Time = 18s

ExecutionTime = 0.307971 s  ClockTime = 1 s

scalarTransport write:
DILUPBiCGStab:  Solving for T, Initial residual = 0.000797517, Final residual = 2.29371e-07, No Iterations 1

Time = 18.05s

ExecutionTime = 0.308484 s  ClockTime = 1 s

scalarTransport write:
DILUPBiCGStab:  Solving for T, Initial residual = 0.000795578, Final residual = 2.27885e-07, No Iterations 1

Time = 18.1s

ExecutionTime = 0.308988 s  ClockTime = 1 s

scalarTransport write:
DILUPBiCGStab:  Solving for T, Initial residual = 0.000793649, Final residual = 2.26425e-07, No Iterations 1

Time = 18.15s

ExecutionTime = 0.309501 s  ClockTime = 1 s

scalarTransport write:
DILUPBiCGStab:  Solving for T, Initial residual = 0.000791732, Final residual = 2.24975e-07, No Iterations 1

Time = 18.2s

ExecutionTime = 0.310009 s  ClockTime = 1 s

scalarTransport write:
DILUPBiCGStab:  Solving for T, Initial residual = 0.000789828, Final residual = 2.23531e-07, No Iterations 1

Time = 18.25s

ExecutionTime = 0.31051 s  ClockTime = 1 s

scalarTransport write:
DILUPBiCGStab:  Solving for T, Initial residual = 0.000787938, Final residual = 2.22092e-07, No Iterations 1

Time = 18.3s

ExecutionTime = 0.311003 s  ClockTime = 1 s

scalarTransport write:
DILUPBiCGStab:  Solving for T, Initial residual = 0.000786063, Final residual = 2.20654e-07, No Iterations 1

Time = 18.35s

ExecutionTime = 0.311512 s  ClockTime = 1 s

scalarTransport write:
DILUPBiCGStab:  Solving for T, Initial residual = 0.000784199, Final residual = 2.19215e-07, No Iterations 1

Time = 18.4s

ExecutionTime = 0.312007 s  ClockTime = 1 s

scalarTransport write:
DILUPBiCGStab:  Solving for T, Initial residual = 0.000782343, Final residual = 2.17776e-07, No Iterations 1

Time = 18.45s

ExecutionTime = 0.312531 s  ClockTime = 1 s

scalarTransport write:
DILUPBiCGStab:  Solving for T, Initial residual = 0.000780499, Final residual = 2.16344e-07, No Iterations 1

Time = 18.5s

ExecutionTime = 0.313043 s  ClockTime = 1 s

scalarTransport write:
DILUPBiCGStab:  Solving for T, Initial residual = 0.000778667, Final residual = 2.14917e-07, No Iterations 1

Time = 18.55s

ExecutionTime = 0.313546 s  ClockTime = 1 s

scalarTransport write:
DILUPBiCGStab:  Solving for T, Initial residual = 0.000776848, Final residual = 2.13492e-07, No Iterations 1

Time = 18.6s

ExecutionTime = 0.31404 s  ClockTime = 1 s

scalarTransport write:
DILUPBiCGStab:  Solving for T, Initial residual = 0.000775039, Final residual = 2.12066e-07, No Iterations 1

Time = 18.65s

ExecutionTime = 0.314541 s  ClockTime = 1 s

scalarTransport write:
DILUPBiCGStab:  Solving for T, Initial residual = 0.000773241, Final residual = 2.1065e-07, No Iterations 1

Time = 18.7s

ExecutionTime = 0.315033 s  ClockTime = 1 s

scalarTransport write:
DILUPBiCGStab:  Solving for T, Initial residual = 0.000771455, Final residual = 2.09243e-07, No Iterations 1

Time = 18.75s

ExecutionTime = 0.315539 s  ClockTime = 1 s

scalarTransport write:
DILUPBiCGStab:  Solving for T, Initial residual = 0.00076968, Final residual = 2.0784e-07, No Iterations 1

Time = 18.8s

ExecutionTime = 0.316033 s  ClockTime = 1 s

scalarTransport write:
DILUPBiCGStab:  Solving for T, Initial residual = 0.000767915, Final residual = 2.06445e-07, No Iterations 1

Time = 18.85s

ExecutionTime = 0.316544 s  ClockTime = 1 s

scalarTransport write:
DILUPBiCGStab:  Solving for T, Initial residual = 0.000766158, Final residual = 2.05062e-07, No Iterations 1

Time = 18.9s

ExecutionTime = 0.317038 s  ClockTime = 1 s

scalarTransport write:
DILUPBiCGStab:  Solving for T, Initial residual = 0.000764409, Final residual = 2.03678e-07, No Iterations 1

Time = 18.95s

ExecutionTime = 0.317536 s  ClockTime = 1 s

scalarTransport write:
DILUPBiCGStab:  Solving for T, Initial residual = 0.000762668, Final residual = 2.02298e-07, No Iterations 1

Time = 19s

ExecutionTime = 0.318029 s  ClockTime = 1 s

scalarTransport write:
DILUPBiCGStab:  Solving for T, Initial residual = 0.000760929, Final residual = 2.00925e-07, No Iterations 1

Time = 19.05s

ExecutionTime = 0.318529 s  ClockTime = 1 s

scalarTransport write:
DILUPBiCGStab:  Solving for T, Initial residual = 0.000759192, Final residual = 1.99564e-07, No Iterations 1

Time = 19.1s

ExecutionTime = 0.319025 s  ClockTime = 1 s

scalarTransport write:
DILUPBiCGStab:  Solving for T, Initial residual = 0.000757461, Final residual = 1.98207e-07, No Iterations 1

Time = 19.15s

ExecutionTime = 0.319527 s  ClockTime = 1 s

scalarTransport write:
DILUPBiCGStab:  Solving for T, Initial residual = 0.00075574, Final residual = 1.9685e-07, No Iterations 1

Time = 19.2s

ExecutionTime = 0.320021 s  ClockTime = 1 s

scalarTransport write:
DILUPBiCGStab:  Solving for T, Initial residual = 0.00075403, Final residual = 1.95495e-07, No Iterations 1

Time = 19.25s

ExecutionTime = 0.320521 s  ClockTime = 1 s

scalarTransport write:
DILUPBiCGStab:  Solving for T, Initial residual = 0.000752332, Final residual = 1.94152e-07, No Iterations 1

Time = 19.3s

ExecutionTime = 0.321014 s  ClockTime = 1 s

scalarTransport write:
DILUPBiCGStab:  Solving for T, Initial residual = 0.000750642, Final residual = 1.92817e-07, No Iterations 1

Time = 19.35s

ExecutionTime = 0.321525 s  ClockTime = 1 s

scalarTransport write:
DILUPBiCGStab:  Solving for T, Initial residual = 0.000748959, Final residual = 1.91482e-07, No Iterations 1

Time = 19.4s

ExecutionTime = 0.322019 s  ClockTime = 1 s

scalarTransport write:
DILUPBiCGStab:  Solving for T, Initial residual = 0.000747284, Final residual = 1.90157e-07, No Iterations 1

Time = 19.45s

ExecutionTime = 0.322521 s  ClockTime = 1 s

scalarTransport write:
DILUPBiCGStab:  Solving for T, Initial residual = 0.000745616, Final residual = 1.88838e-07, No Iterations 1

Time = 19.5s

ExecutionTime = 0.323013 s  ClockTime = 1 s

scalarTransport write:
DILUPBiCGStab:  Solving for T, Initial residual = 0.000743954, Final residual = 1.87521e-07, No Iterations 1

Time = 19.55s

ExecutionTime = 0.323513 s  ClockTime = 1 s

scalarTransport write:
DILUPBiCGStab:  Solving for T, Initial residual = 0.000742302, Final residual = 1.86207e-07, No Iterations 1

Time = 19.6s

ExecutionTime = 0.324006 s  ClockTime = 1 s

scalarTransport write:
DILUPBiCGStab:  Solving for T, Initial residual = 0.000740661, Final residual = 1.84895e-07, No Iterations 1

Time = 19.65s

ExecutionTime = 0.324507 s  ClockTime = 1 s

scalarTransport write:
DILUPBiCGStab:  Solving for T, Initial residual = 0.000739034, Final residual = 1.8359e-07, No Iterations 1

Time = 19.7s

ExecutionTime = 0.325 s  ClockTime = 1 s

scalarTransport write:
DILUPBiCGStab:  Solving for T, Initial residual = 0.000737418, Final residual = 1.8229e-07, No Iterations 1

Time = 19.75s

ExecutionTime = 0.3255 s  ClockTime = 1 s

scalarTransport write:
DILUPBiCGStab:  Solving for T, Initial residual = 0.000735813, Final residual = 1.80993e-07, No Iterations 1

Time = 19.8s

ExecutionTime = 0.325993 s  ClockTime = 1 s

scalarTransport write:
DILUPBiCGStab:  Solving for T, Initial residual = 0.000734217, Final residual = 1.79701e-07, No Iterations 1

Time = 19.85s

ExecutionTime = 0.326529 s  ClockTime = 1 s

scalarTransport write:
DILUPBiCGStab:  Solving for T, Initial residual = 0.000732631, Final residual = 1.78424e-07, No Iterations 1

Time = 19.9s

ExecutionTime = 0.327028 s  ClockTime = 1 s

scalarTransport write:
DILUPBiCGStab:  Solving for T, Initial residual = 0.000731049, Final residual = 1.77166e-07, No Iterations 1

Time = 19.95s

ExecutionTime = 0.327531 s  ClockTime = 1 s

scalarTransport write:
DILUPBiCGStab:  Solving for T, Initial residual = 0.00072947, Final residual = 1.75908e-07, No Iterations 1

Time = 20s

ExecutionTime = 0.329665 s  ClockTime = 1 s

scalarTransport write:
DILUPBiCGStab:  Solving for T, Initial residual = 0.000727897, Final residual = 1.74654e-07, No Iterations 1

Time = 20.05s

ExecutionTime = 0.330186 s  ClockTime = 1 s

scalarTransport write:
DILUPBiCGStab:  Solving for T, Initial residual = 0.00072633, Final residual = 1.73404e-07, No Iterations 1

Time = 20.1s

ExecutionTime = 0.330693 s  ClockTime = 1 s

scalarTransport write:
DILUPBiCGStab:  Solving for T, Initial residual = 0.000724769, Final residual = 1.72156e-07, No Iterations 1

Time = 20.15s

ExecutionTime = 0.331188 s  ClockTime = 1 s

scalarTransport write:
DILUPBiCGStab:  Solving for T, Initial residual = 0.000723215, Final residual = 1.70909e-07, No Iterations 1

Time = 20.2s

ExecutionTime = 0.331688 s  ClockTime = 1 s

scalarTransport write:
DILUPBiCGStab:  Solving for T, Initial residual = 0.000721669, Final residual = 1.6967e-07, No Iterations 1

Time = 20.25s

ExecutionTime = 0.332184 s  ClockTime = 1 s

scalarTransport write:
DILUPBiCGStab:  Solving for T, Initial residual = 0.000720134, Final residual = 1.68438e-07, No Iterations 1

Time = 20.3s

ExecutionTime = 0.332684 s  ClockTime = 1 s

scalarTransport write:
DILUPBiCGStab:  Solving for T, Initial residual = 0.000718609, Final residual = 1.67208e-07, No Iterations 1

Time = 20.35s

ExecutionTime = 0.333191 s  ClockTime = 1 s

scalarTransport write:
[...]

Time = 594.85s

ExecutionTime = 6.4683 s  ClockTime = 7 s

scalarTransport write:
DILUPBiCGStab:  Solving for T, Initial residual = 0.000120126, Final residual = 6.70323e-09, No Iterations 1

Time = 594.9s

ExecutionTime = 6.4688 s  ClockTime = 7 s

scalarTransport write:
DILUPBiCGStab:  Solving for T, Initial residual = 0.000120119, Final residual = 6.70277e-09, No Iterations 1

Time = 594.95s

ExecutionTime = 6.46928 s  ClockTime = 7 s

scalarTransport write:
DILUPBiCGStab:  Solving for T, Initial residual = 0.000120112, Final residual = 6.70231e-09, No Iterations 1

Time = 595s

ExecutionTime = 6.47109 s  ClockTime = 7 s

scalarTransport write:
DILUPBiCGStab:  Solving for T, Initial residual = 0.000120106, Final residual = 6.70184e-09, No Iterations 1

Time = 595.05s

ExecutionTime = 6.4716 s  ClockTime = 7 s

scalarTransport write:
DILUPBiCGStab:  Solving for T, Initial residual = 0.000120099, Final residual = 6.70138e-09, No Iterations 1

Time = 595.1s

ExecutionTime = 6.47209 s  ClockTime = 7 s

scalarTransport write:
DILUPBiCGStab:  Solving for T, Initial residual = 0.000120092, Final residual = 6.70092e-09, No Iterations 1

Time = 595.15s

ExecutionTime = 6.47259 s  ClockTime = 7 s

scalarTransport write:
DILUPBiCGStab:  Solving for T, Initial residual = 0.000120085, Final residual = 6.70046e-09, No Iterations 1

Time = 595.2s

ExecutionTime = 6.47307 s  ClockTime = 7 s

scalarTransport write:
DILUPBiCGStab:  Solving for T, Initial residual = 0.000120078, Final residual = 6.69999e-09, No Iterations 1

Time = 595.25s

ExecutionTime = 6.47357 s  ClockTime = 7 s

scalarTransport write:
DILUPBiCGStab:  Solving for T, Initial residual = 0.000120071, Final residual = 6.69953e-09, No Iterations 1

Time = 595.3s

ExecutionTime = 6.47405 s  ClockTime = 7 s

scalarTransport write:
DILUPBiCGStab:  Solving for T, Initial residual = 0.000120064, Final residual = 6.69907e-09, No Iterations 1

Time = 595.35s

ExecutionTime = 6.47455 s  ClockTime = 7 s

scalarTransport write:
DILUPBiCGStab:  Solving for T, Initial residual = 0.000120057, Final residual = 6.69861e-09, No Iterations 1

Time = 595.4s

ExecutionTime = 6.47504 s  ClockTime = 7 s

scalarTransport write:
DILUPBiCGStab:  Solving for T, Initial residual = 0.00012005, Final residual = 6.69814e-09, No Iterations 1

Time = 595.45s

ExecutionTime = 6.47553 s  ClockTime = 7 s

scalarTransport write:
DILUPBiCGStab:  Solving for T, Initial residual = 0.000120043, Final residual = 6.69768e-09, No Iterations 1

Time = 595.5s

ExecutionTime = 6.47602 s  ClockTime = 7 s

scalarTransport write:
DILUPBiCGStab:  Solving for T, Initial residual = 0.000120037, Final residual = 6.69722e-09, No Iterations 1

Time = 595.55s

ExecutionTime = 6.47651 s  ClockTime = 7 s

scalarTransport write:
DILUPBiCGStab:  Solving for T, Initial residual = 0.00012003, Final residual = 6.69676e-09, No Iterations 1

Time = 595.6s

ExecutionTime = 6.477 s  ClockTime = 7 s

scalarTransport write:
DILUPBiCGStab:  Solving for T, Initial residual = 0.000120023, Final residual = 6.69629e-09, No Iterations 1

Time = 595.65s

ExecutionTime = 6.47749 s  ClockTime = 7 s

scalarTransport write:
DILUPBiCGStab:  Solving for T, Initial residual = 0.000120016, Final residual = 6.69583e-09, No Iterations 1

Time = 595.7s

ExecutionTime = 6.47798 s  ClockTime = 7 s

scalarTransport write:
DILUPBiCGStab:  Solving for T, Initial residual = 0.000120009, Final residual = 6.69537e-09, No Iterations 1

Time = 595.75s

ExecutionTime = 6.47848 s  ClockTime = 7 s

scalarTransport write:
DILUPBiCGStab:  Solving for T, Initial residual = 0.000120002, Final residual = 6.69491e-09, No Iterations 1

Time = 595.8s

ExecutionTime = 6.47896 s  ClockTime = 7 s

scalarTransport write:
DILUPBiCGStab:  Solving for T, Initial residual = 0.000119995, Final residual = 6.69444e-09, No Iterations 1

Time = 595.85s

ExecutionTime = 6.47947 s  ClockTime = 7 s

scalarTransport write:
DILUPBiCGStab:  Solving for T, Initial residual = 0.000119988, Final residual = 6.69398e-09, No Iterations 1

Time = 595.9s

ExecutionTime = 6.47996 s  ClockTime = 7 s

scalarTransport write:
DILUPBiCGStab:  Solving for T, Initial residual = 0.000119981, Final residual = 6.69352e-09, No Iterations 1

Time = 595.95s

ExecutionTime = 6.48045 s  ClockTime = 7 s

scalarTransport write:
DILUPBiCGStab:  Solving for T, Initial residual = 0.000119975, Final residual = 6.69306e-09, No Iterations 1

Time = 596s

ExecutionTime = 6.48094 s  ClockTime = 7 s

scalarTransport write:
DILUPBiCGStab:  Solving for T, Initial residual = 0.000119968, Final residual = 6.69259e-09, No Iterations 1

Time = 596.05s

ExecutionTime = 6.48143 s  ClockTime = 7 s

scalarTransport write:
DILUPBiCGStab:  Solving for T, Initial residual = 0.000119961, Final residual = 6.69213e-09, No Iterations 1

Time = 596.1s

ExecutionTime = 6.48192 s  ClockTime = 7 s

scalarTransport write:
DILUPBiCGStab:  Solving for T, Initial residual = 0.000119954, Final residual = 6.69167e-09, No Iterations 1

Time = 596.15s

ExecutionTime = 6.4824 s  ClockTime = 7 s

scalarTransport write:
DILUPBiCGStab:  Solving for T, Initial residual = 0.000119947, Final residual = 6.69121e-09, No Iterations 1

Time = 596.2s

ExecutionTime = 6.48289 s  ClockTime = 7 s

scalarTransport write:
DILUPBiCGStab:  Solving for T, Initial residual = 0.00011994, Final residual = 6.69074e-09, No Iterations 1

Time = 596.25s

ExecutionTime = 6.48338 s  ClockTime = 7 s

scalarTransport write:
DILUPBiCGStab:  Solving for T, Initial residual = 0.000119933, Final residual = 6.69028e-09, No Iterations 1

Time = 596.3s

ExecutionTime = 6.48387 s  ClockTime = 7 s

scalarTransport write:
DILUPBiCGStab:  Solving for T, Initial residual = 0.000119926, Final residual = 6.68982e-09, No Iterations 1

Time = 596.35s

ExecutionTime = 6.48437 s  ClockTime = 7 s

scalarTransport write:
DILUPBiCGStab:  Solving for T, Initial residual = 0.000119919, Final residual = 6.68936e-09, No Iterations 1

Time = 596.4s

ExecutionTime = 6.48487 s  ClockTime = 7 s

scalarTransport write:
DILUPBiCGStab:  Solving for T, Initial residual = 0.000119912, Final residual = 6.68889e-09, No Iterations 1

Time = 596.45s

ExecutionTime = 6.48535 s  ClockTime = 7 s

scalarTransport write:
DILUPBiCGStab:  Solving for T, Initial residual = 0.000119906, Final residual = 6.68843e-09, No Iterations 1

Time = 596.5s

ExecutionTime = 6.48584 s  ClockTime = 7 s

scalarTransport write:
DILUPBiCGStab:  Solving for T, Initial residual = 0.000119899, Final residual = 6.68797e-09, No Iterations 1

Time = 596.55s

ExecutionTime = 6.48633 s  ClockTime = 7 s

scalarTransport write:
DILUPBiCGStab:  Solving for T, Initial residual = 0.000119892, Final residual = 6.68751e-09, No Iterations 1

Time = 596.6s

ExecutionTime = 6.48682 s  ClockTime = 7 s

scalarTransport write:
DILUPBiCGStab:  Solving for T, Initial residual = 0.000119885, Final residual = 6.68704e-09, No Iterations 1

Time = 596.65s

ExecutionTime = 6.4873 s  ClockTime = 7 s

scalarTransport write:
DILUPBiCGStab:  Solving for T, Initial residual = 0.000119878, Final residual = 6.68658e-09, No Iterations 1

Time = 596.7s

ExecutionTime = 6.4878 s  ClockTime = 7 s

scalarTransport write:
DILUPBiCGStab:  Solving for T, Initial residual = 0.000119871, Final residual = 6.68612e-09, No Iterations 1

Time = 596.75s

ExecutionTime = 6.48829 s  ClockTime = 7 s

scalarTransport write:
DILUPBiCGStab:  Solving for T, Initial residual = 0.000119864, Final residual = 6.68566e-09, No Iterations 1

Time = 596.8s

ExecutionTime = 6.48878 s  ClockTime = 7 s

scalarTransport write:
DILUPBiCGStab:  Solving for T, Initial residual = 0.000119857, Final residual = 6.68519e-09, No Iterations 1

Time = 596.85s

ExecutionTime = 6.48928 s  ClockTime = 7 s

scalarTransport write:
DILUPBiCGStab:  Solving for T, Initial residual = 0.00011985, Final residual = 6.68473e-09, No Iterations 1

Time = 596.9s

ExecutionTime = 6.48978 s  ClockTime = 7 s

scalarTransport write:
DILUPBiCGStab:  Solving for T, Initial residual = 0.000119843, Final residual = 6.68427e-09, No Iterations 1

Time = 596.95s

ExecutionTime = 6.49026 s  ClockTime = 7 s

scalarTransport write:
DILUPBiCGStab:  Solving for T, Initial residual = 0.000119837, Final residual = 6.68381e-09, No Iterations 1

Time = 597s

ExecutionTime = 6.49076 s  ClockTime = 7 s

scalarTransport write:
DILUPBiCGStab:  Solving for T, Initial residual = 0.00011983, Final residual = 6.68334e-09, No Iterations 1

Time = 597.05s

ExecutionTime = 6.49124 s  ClockTime = 7 s

scalarTransport write:
DILUPBiCGStab:  Solving for T, Initial residual = 0.000119823, Final residual = 6.68288e-09, No Iterations 1

Time = 597.1s

ExecutionTime = 6.49174 s  ClockTime = 7 s

scalarTransport write:
DILUPBiCGStab:  Solving for T, Initial residual = 0.000119816, Final residual = 6.68242e-09, No Iterations 1

Time = 597.15s

ExecutionTime = 6.49222 s  ClockTime = 7 s

scalarTransport write:
DILUPBiCGStab:  Solving for T, Initial residual = 0.000119809, Final residual = 6.68196e-09, No Iterations 1

Time = 597.2s

ExecutionTime = 6.49272 s  ClockTime = 7 s

scalarTransport write:
DILUPBiCGStab:  Solving for T, Initial residual = 0.000119802, Final residual = 6.68149e-09, No Iterations 1

Time = 597.25s

ExecutionTime = 6.4932 s  ClockTime = 7 s

scalarTransport write:
DILUPBiCGStab:  Solving for T, Initial residual = 0.000119795, Final residual = 6.68103e-09, No Iterations 1

Time = 597.3s

ExecutionTime = 6.4937 s  ClockTime = 7 s

scalarTransport write:
DILUPBiCGStab:  Solving for T, Initial residual = 0.000119788, Final residual = 6.68057e-09, No Iterations 1

Time = 597.35s

ExecutionTime = 6.4942 s  ClockTime = 7 s

scalarTransport write:
DILUPBiCGStab:  Solving for T, Initial residual = 0.000119781, Final residual = 6.68011e-09, No Iterations 1

Time = 597.4s

ExecutionTime = 6.49469 s  ClockTime = 7 s

scalarTransport write:
DILUPBiCGStab:  Solving for T, Initial residual = 0.000119774, Final residual = 6.67964e-09, No Iterations 1

Time = 597.45s

ExecutionTime = 6.49518 s  ClockTime = 7 s

scalarTransport write:
DILUPBiCGStab:  Solving for T, Initial residual = 0.000119767, Final residual = 6.67918e-09, No Iterations 1

Time = 597.5s

ExecutionTime = 6.49567 s  ClockTime = 7 s

scalarTransport write:
DILUPBiCGStab:  Solving for T, Initial residual = 0.000119761, Final residual = 6.67872e-09, No Iterations 1

Time = 597.55s

ExecutionTime = 6.49616 s  ClockTime = 7 s

scalarTransport write:
DILUPBiCGStab:  Solving for T, Initial residual = 0.000119754, Final residual = 6.67826e-09, No Iterations 1

Time = 597.6s

ExecutionTime = 6.49665 s  ClockTime = 7 s

scalarTransport write:
DILUPBiCGStab:  Solving for T, Initial residual = 0.000119747, Final residual = 6.67779e-09, No Iterations 1

Time = 597.65s

ExecutionTime = 6.49714 s  ClockTime = 7 s

scalarTransport write:
DILUPBiCGStab:  Solving for T, Initial residual = 0.00011974, Final residual = 6.67733e-09, No Iterations 1

Time = 597.7s

ExecutionTime = 6.49763 s  ClockTime = 7 s

scalarTransport write:
DILUPBiCGStab:  Solving for T, Initial residual = 0.000119733, Final residual = 6.67687e-09, No Iterations 1

Time = 597.75s

ExecutionTime = 6.49812 s  ClockTime = 7 s

scalarTransport write:
DILUPBiCGStab:  Solving for T, Initial residual = 0.000119726, Final residual = 6.67641e-09, No Iterations 1

Time = 597.8s

ExecutionTime = 6.49861 s  ClockTime = 7 s

scalarTransport write:
DILUPBiCGStab:  Solving for T, Initial residual = 0.000119719, Final residual = 6.67594e-09, No Iterations 1

Time = 597.85s

ExecutionTime = 6.49911 s  ClockTime = 7 s

scalarTransport write:
DILUPBiCGStab:  Solving for T, Initial residual = 0.000119712, Final residual = 6.67548e-09, No Iterations 1

Time = 597.9s

ExecutionTime = 6.49961 s  ClockTime = 7 s

scalarTransport write:
DILUPBiCGStab:  Solving for T, Initial residual = 0.000119705, Final residual = 6.67502e-09, No Iterations 1

Time = 597.95s

ExecutionTime = 6.5001 s  ClockTime = 7 s

scalarTransport write:
DILUPBiCGStab:  Solving for T, Initial residual = 0.000119698, Final residual = 6.67456e-09, No Iterations 1

Time = 598s

ExecutionTime = 6.50059 s  ClockTime = 7 s

scalarTransport write:
DILUPBiCGStab:  Solving for T, Initial residual = 0.000119691, Final residual = 6.67409e-09, No Iterations 1

Time = 598.05s

ExecutionTime = 6.50108 s  ClockTime = 7 s

scalarTransport write:
DILUPBiCGStab:  Solving for T, Initial residual = 0.000119685, Final residual = 6.67363e-09, No Iterations 1

Time = 598.1s

ExecutionTime = 6.50157 s  ClockTime = 7 s

scalarTransport write:
DILUPBiCGStab:  Solving for T, Initial residual = 0.000119678, Final residual = 6.67317e-09, No Iterations 1

Time = 598.15s

ExecutionTime = 6.50206 s  ClockTime = 7 s

scalarTransport write:
DILUPBiCGStab:  Solving for T, Initial residual = 0.000119671, Final residual = 6.67271e-09, No Iterations 1

Time = 598.2s

ExecutionTime = 6.50255 s  ClockTime = 7 s

scalarTransport write:
DILUPBiCGStab:  Solving for T, Initial residual = 0.000119664, Final residual = 6.67224e-09, No Iterations 1

Time = 598.25s

ExecutionTime = 6.50304 s  ClockTime = 7 s

scalarTransport write:
DILUPBiCGStab:  Solving for T, Initial residual = 0.000119657, Final residual = 6.67178e-09, No Iterations 1

Time = 598.3s

ExecutionTime = 6.50353 s  ClockTime = 7 s

scalarTransport write:
DILUPBiCGStab:  Solving for T, Initial residual = 0.00011965, Final residual = 6.67132e-09, No Iterations 1

Time = 598.35s

ExecutionTime = 6.50403 s  ClockTime = 7 s

scalarTransport write:
DILUPBiCGStab:  Solving for T, Initial residual = 0.000119643, Final residual = 6.67086e-09, No Iterations 1

Time = 598.4s

ExecutionTime = 6.50452 s  ClockTime = 7 s

scalarTransport write:
DILUPBiCGStab:  Solving for T, Initial residual = 0.000119636, Final residual = 6.67039e-09, No Iterations 1

Time = 598.45s

ExecutionTime = 6.50501 s  ClockTime = 7 s

scalarTransport write:
DILUPBiCGStab:  Solving for T, Initial residual = 0.000119629, Final residual = 6.66993e-09, No Iterations 1

Time = 598.5s

ExecutionTime = 6.5055 s  ClockTime = 7 s

scalarTransport write:
DILUPBiCGStab:  Solving for T, Initial residual = 0.000119622, Final residual = 6.66947e-09, No Iterations 1

Time = 598.55s

ExecutionTime = 6.50599 s  ClockTime = 7 s

scalarTransport write:
DILUPBiCGStab:  Solving for T, Initial residual = 0.000119615, Final residual = 6.66901e-09, No Iterations 1

Time = 598.6s

ExecutionTime = 6.50648 s  ClockTime = 7 s

scalarTransport write:
DILUPBiCGStab:  Solving for T, Initial residual = 0.000119609, Final residual = 6.66854e-09, No Iterations 1

Time = 598.65s

ExecutionTime = 6.50697 s  ClockTime = 7 s

scalarTransport write:
DILUPBiCGStab:  Solving for T, Initial residual = 0.000119602, Final residual = 6.66808e-09, No Iterations 1

Time = 598.7s

ExecutionTime = 6.50746 s  ClockTime = 7 s

scalarTransport write:
DILUPBiCGStab:  Solving for T, Initial residual = 0.000119595, Final residual = 6.66762e-09, No Iterations 1

Time = 598.75s

ExecutionTime = 6.50795 s  ClockTime = 7 s

scalarTransport write:
DILUPBiCGStab:  Solving for T, Initial residual = 0.000119588, Final residual = 6.66715e-09, No Iterations 1

Time = 598.8s

ExecutionTime = 6.50844 s  ClockTime = 7 s

scalarTransport write:
DILUPBiCGStab:  Solving for T, Initial residual = 0.000119581, Final residual = 6.66669e-09, No Iterations 1

Time = 598.85s

ExecutionTime = 6.50893 s  ClockTime = 7 s

scalarTransport write:
DILUPBiCGStab:  Solving for T, Initial residual = 0.000119574, Final residual = 6.66623e-09, No Iterations 1

Time = 598.9s

ExecutionTime = 6.50943 s  ClockTime = 7 s

scalarTransport write:
DILUPBiCGStab:  Solving for T, Initial residual = 0.000119567, Final residual = 6.66577e-09, No Iterations 1

Time = 598.95s

ExecutionTime = 6.50992 s  ClockTime = 7 s

scalarTransport write:
DILUPBiCGStab:  Solving for T, Initial residual = 0.00011956, Final residual = 6.6653e-09, No Iterations 1

Time = 599s

ExecutionTime = 6.51041 s  ClockTime = 7 s

scalarTransport write:
DILUPBiCGStab:  Solving for T, Initial residual = 0.000119553, Final residual = 6.66484e-09, No Iterations 1

Time = 599.05s

ExecutionTime = 6.5109 s  ClockTime = 7 s

scalarTransport write:
DILUPBiCGStab:  Solving for T, Initial residual = 0.000119546, Final residual = 6.66438e-09, No Iterations 1

Time = 599.1s

ExecutionTime = 6.51139 s  ClockTime = 7 s

scalarTransport write:
DILUPBiCGStab:  Solving for T, Initial residual = 0.000119539, Final residual = 6.66392e-09, No Iterations 1

Time = 599.15s

ExecutionTime = 6.51188 s  ClockTime = 7 s

scalarTransport write:
DILUPBiCGStab:  Solving for T, Initial residual = 0.000119533, Final residual = 6.66345e-09, No Iterations 1

Time = 599.2s

ExecutionTime = 6.51237 s  ClockTime = 7 s

scalarTransport write:
DILUPBiCGStab:  Solving for T, Initial residual = 0.000119526, Final residual = 6.66299e-09, No Iterations 1

Time = 599.25s

ExecutionTime = 6.51286 s  ClockTime = 7 s

scalarTransport write:
DILUPBiCGStab:  Solving for T, Initial residual = 0.000119519, Final residual = 6.66253e-09, No Iterations 1

Time = 599.3s

ExecutionTime = 6.51335 s  ClockTime = 7 s

scalarTransport write:
DILUPBiCGStab:  Solving for T, Initial residual = 0.000119512, Final residual = 6.66207e-09, No Iterations 1

Time = 599.35s

ExecutionTime = 6.51385 s  ClockTime = 7 s

scalarTransport write:
DILUPBiCGStab:  Solving for T, Initial residual = 0.000119505, Final residual = 6.6616e-09, No Iterations 1

Time = 599.4s

ExecutionTime = 6.51434 s  ClockTime = 7 s

scalarTransport write:
DILUPBiCGStab:  Solving for T, Initial residual = 0.000119498, Final residual = 6.66114e-09, No Iterations 1

Time = 599.45s

ExecutionTime = 6.51484 s  ClockTime = 7 s

scalarTransport write:
DILUPBiCGStab:  Solving for T, Initial residual = 0.000119491, Final residual = 6.66068e-09, No Iterations 1

Time = 599.5s

ExecutionTime = 6.51532 s  ClockTime = 7 s

scalarTransport write:
DILUPBiCGStab:  Solving for T, Initial residual = 0.000119484, Final residual = 6.66021e-09, No Iterations 1

Time = 599.55s

ExecutionTime = 6.51581 s  ClockTime = 7 s

scalarTransport write:
DILUPBiCGStab:  Solving for T, Initial residual = 0.000119477, Final residual = 6.65975e-09, No Iterations 1

Time = 599.6s

ExecutionTime = 6.5163 s  ClockTime = 7 s

scalarTransport write:
DILUPBiCGStab:  Solving for T, Initial residual = 0.00011947, Final residual = 6.65929e-09, No Iterations 1

Time = 599.65s

ExecutionTime = 6.51679 s  ClockTime = 7 s

scalarTransport write:
DILUPBiCGStab:  Solving for T, Initial residual = 0.000119463, Final residual = 6.65883e-09, No Iterations 1

Time = 599.7s

ExecutionTime = 6.51728 s  ClockTime = 7 s

scalarTransport write:
DILUPBiCGStab:  Solving for T, Initial residual = 0.000119456, Final residual = 6.65836e-09, No Iterations 1

Time = 599.75s

ExecutionTime = 6.51777 s  ClockTime = 7 s

scalarTransport write:
DILUPBiCGStab:  Solving for T, Initial residual = 0.00011945, Final residual = 6.6579e-09, No Iterations 1

Time = 599.8s

ExecutionTime = 6.51826 s  ClockTime = 7 s

scalarTransport write:
DILUPBiCGStab:  Solving for T, Initial residual = 0.000119443, Final residual = 6.65744e-09, No Iterations 1

Time = 599.85s

ExecutionTime = 6.51876 s  ClockTime = 7 s

scalarTransport write:
DILUPBiCGStab:  Solving for T, Initial residual = 0.000119436, Final residual = 6.65698e-09, No Iterations 1

Time = 599.9s

ExecutionTime = 6.51925 s  ClockTime = 7 s

scalarTransport write:
DILUPBiCGStab:  Solving for T, Initial residual = 0.000119429, Final residual = 6.65651e-09, No Iterations 1

Time = 599.95s

ExecutionTime = 6.51975 s  ClockTime = 7 s

scalarTransport write:
DILUPBiCGStab:  Solving for T, Initial residual = 0.000119422, Final residual = 6.65605e-09, No Iterations 1

Time = 600s

ExecutionTime = 6.52152 s  ClockTime = 7 s

scalarTransport write:
DILUPBiCGStab:  Solving for T, Initial residual = 0.000119415, Final residual = 6.65559e-09, No Iterations 1

End

