/*---------------------------------------------------------------------------*\
  =========                 |
  \\      /  F ield         | OpenFOAM: The Open Source CFD Toolbox
   \\    /   O peration     | Website:  https://openfoam.org
    \\  /    A nd           | Version:  13
     \\/     M anipulation  |
\*---------------------------------------------------------------------------*/
Build  : 13-441953dfbb42
Exec   : foamRun
Date   : Apr 23 2026
Time   : 11:36:20
Host   : "ed-ThinkPad"
PID    : 14734
I/O    : uncollated
Case   : /home/ecastro/OpenFOAM/ecastro-13/run/basicHeatTreatment/cycle2
nProcs : 1
sigFpe : Enabling floating point exception trapping (FOAM_SIGFPE).
fileModificationChecking : Monitoring run-time modified files using timeStampMaster (fileModificationSkew 10)
allowSystemOperations : Allowing user-supplied system call operations

// * * * * * * * * * * * * * * * * * * * * * * * * * * * * * * * * * * * * * //
Create time

Create mesh for time = 0

Selecting solver solid
Selecting thermodynamics package 
{
    type            heSolidThermo;
    mixture         pureMixture;
    transport       tabulatedSolid;
    thermo          eIcoTabulated;
    equationOfState rhoConst;
    specie          specie;
    energy          sensibleInternalEnergy;
}

Selecting default solid thermophysical transport model isotropic

PIMPLE: No convergence criteria found


PIMPLE: Operating solver in transient mode with 1 outer corrector
PIMPLE: Operating solver in PISO mode



Starting time loop

volFieldValue averageT read:
    number of cells = 5712
    volume = 1.56231e-05
    operation = average

volFieldValue minT read:
    number of cells = 5712
    volume = 1.56231e-05
    operation = min

volFieldValue maxT read:
    number of cells = 5712
    volume = 1.56231e-05
    operation = max

deltaT = 0.006
Time = 0.006s

DICPCG:  Solving for e, Initial residual = 1, Final residual = 0.0120649, No Iterations 1
DICPCG:  Solving for e, Initial residual = 0.00808039, Final residual = 0.000346318, No Iterations 1
DICPCG:  Solving for e, Initial residual = 0.000460333, Final residual = 6.86859e-07, No Iterations 2
ExecutionTime = 0.183036 s  ClockTime = 0 s

deltaT = 0.0072
Time = 0.0132s

DICPCG:  Solving for e, Initial residual = 0.400278, Final residual = 0.00615532, No Iterations 1
DICPCG:  Solving for e, Initial residual = 0.00534101, Final residual = 0.000278091, No Iterations 1
DICPCG:  Solving for e, Initial residual = 0.000350928, Final residual = 6.25581e-08, No Iterations 3
ExecutionTime = 0.194196 s  ClockTime = 0 s

deltaT = 0.00864
Time = 0.02184s

DICPCG:  Solving for e, Initial residual = 0.276484, Final residual = 0.00541664, No Iterations 1
DICPCG:  Solving for e, Initial residual = 0.00493874, Final residual = 0.000309866, No Iterations 1
DICPCG:  Solving for e, Initial residual = 0.000372722, Final residual = 1.05278e-07, No Iterations 3
ExecutionTime = 0.205435 s  ClockTime = 0 s

deltaT = 0.010368
Time = 0.032208s

DICPCG:  Solving for e, Initial residual = 0.225613, Final residual = 0.00560091, No Iterations 1
DICPCG:  Solving for e, Initial residual = 0.00517589, Final residual = 0.000391576, No Iterations 1
DICPCG:  Solving for e, Initial residual = 0.000451693, Final residual = 1.87856e-07, No Iterations 3
ExecutionTime = 0.216686 s  ClockTime = 0 s

deltaT = 0.0124416
Time = 0.0446496s

DICPCG:  Solving for e, Initial residual = 0.19963, Final residual = 0.00622377, No Iterations 1
DICPCG:  Solving for e, Initial residual = 0.00580006, Final residual = 0.000523437, No Iterations 1
DICPCG:  Solving for e, Initial residual = 0.00058669, Final residual = 3.57155e-07, No Iterations 3
ExecutionTime = 0.228076 s  ClockTime = 0 s

deltaT = 0.0149299
Time = 0.0595795s

DICPCG:  Solving for e, Initial residual = 0.185293, Final residual = 0.00718765, No Iterations 1
DICPCG:  Solving for e, Initial residual = 0.00673298, Final residual = 3.38102e-05, No Iterations 2
DICPCG:  Solving for e, Initial residual = 0.000206342, Final residual = 1.66845e-07, No Iterations 3
ExecutionTime = 0.239514 s  ClockTime = 0 s

deltaT = 0.0179159
Time = 0.0774954s

DICPCG:  Solving for e, Initial residual = 0.177371, Final residual = 0.00849234, No Iterations 1
DICPCG:  Solving for e, Initial residual = 0.00798665, Final residual = 5.73208e-05, No Iterations 2
DICPCG:  Solving for e, Initial residual = 0.000268734, Final residual = 3.21264e-07, No Iterations 3
ExecutionTime = 0.251151 s  ClockTime = 0 s

deltaT = 0.0214991
Time = 0.0989945s

DICPCG:  Solving for e, Initial residual = 0.17341, Final residual = 0.0101726, No Iterations 1
DICPCG:  Solving for e, Initial residual = 0.00960656, Final residual = 9.78032e-05, No Iterations 2
DICPCG:  Solving for e, Initial residual = 0.000360119, Final residual = 6.48004e-07, No Iterations 3
ExecutionTime = 0.262758 s  ClockTime = 0 s

deltaT = 0.0257989
Time = 0.124793s

DICPCG:  Solving for e, Initial residual = 0.172158, Final residual = 0.0123041, No Iterations 1
DICPCG:  Solving for e, Initial residual = 0.0116502, Final residual = 0.000166574, No Iterations 2
DICPCG:  Solving for e, Initial residual = 0.000492974, Final residual = 1.58036e-07, No Iterations 4
ExecutionTime = 0.274633 s  ClockTime = 0 s

deltaT = 0.0309587
Time = 0.155752s

DICPCG:  Solving for e, Initial residual = 0.172783, Final residual = 0.0149562, No Iterations 1
DICPCG:  Solving for e, Initial residual = 0.0142022, Final residual = 0.000281626, No Iterations 2
DICPCG:  Solving for e, Initial residual = 0.000684712, Final residual = 3.91506e-07, No Iterations 4
ExecutionTime = 0.286478 s  ClockTime = 0 s

deltaT = 0.0371504
Time = 0.192903s

DICPCG:  Solving for e, Initial residual = 0.174784, Final residual = 0.00374819, No Iterations 2
DICPCG:  Solving for e, Initial residual = 0.00391495, Final residual = 0.00012492, No Iterations 2
DICPCG:  Solving for e, Initial residual = 0.000237397, Final residual = 1.87606e-07, No Iterations 4
ExecutionTime = 0.298436 s  ClockTime = 0 s

deltaT = 0.0445805
Time = 0.237483s

DICPCG:  Solving for e, Initial residual = 0.177853, Final residual = 0.00523527, No Iterations 2
DICPCG:  Solving for e, Initial residual = 0.00530441, Final residual = 0.000222456, No Iterations 2
DICPCG:  Solving for e, Initial residual = 0.000369938, Final residual = 5.33815e-07, No Iterations 4
ExecutionTime = 0.310229 s  ClockTime = 0 s

deltaT = 0.0534966
Time = 0.29098s

DICPCG:  Solving for e, Initial residual = 0.181685, Final residual = 0.00721072, No Iterations 2
DICPCG:  Solving for e, Initial residual = 0.00717845, Final residual = 0.000384678, No Iterations 2
DICPCG:  Solving for e, Initial residual = 0.000579724, Final residual = 2.32702e-07, No Iterations 5
ExecutionTime = 0.322292 s  ClockTime = 0 s

deltaT = 0.0641959
Time = 0.355176s

DICPCG:  Solving for e, Initial residual = 0.186042, Final residual = 0.00976377, No Iterations 2
DICPCG:  Solving for e, Initial residual = 0.00962887, Final residual = 0.000643936, No Iterations 2
DICPCG:  Solving for e, Initial residual = 0.000903193, Final residual = 6.40138e-07, No Iterations 5
ExecutionTime = 0.334508 s  ClockTime = 0 s

deltaT = 0.0770351
Time = 0.432211s

DICPCG:  Solving for e, Initial residual = 0.190851, Final residual = 0.0129851, No Iterations 2
DICPCG:  Solving for e, Initial residual = 0.0127436, Final residual = 0.00104249, No Iterations 2
DICPCG:  Solving for e, Initial residual = 0.00138739, Final residual = 4.31961e-07, No Iterations 6
ExecutionTime = 0.347177 s  ClockTime = 0 s

deltaT = 0.0924421
Time = 0.524653s

DICPCG:  Solving for e, Initial residual = 0.195937, Final residual = 0.0169366, No Iterations 2
DICPCG:  Solving for e, Initial residual = 0.0165735, Final residual = 0.00162987, No Iterations 2
DICPCG:  Solving for e, Initial residual = 0.00208622, Final residual = 4.07073e-07, No Iterations 7
ExecutionTime = 0.359867 s  ClockTime = 0 s

deltaT = 0.110931
Time = 0.635583s

DICPCG:  Solving for e, Initial residual = 0.201226, Final residual = 0.00610216, No Iterations 3
DICPCG:  Solving for e, Initial residual = 0.00670007, Final residual = 0.000362684, No Iterations 3
DICPCG:  Solving for e, Initial residual = 0.000658364, Final residual = 6.87173e-07, No Iterations 6
ExecutionTime = 0.372701 s  ClockTime = 0 s

deltaT = 0.133117
Time = 0.7687s

DICPCG:  Solving for e, Initial residual = 0.206724, Final residual = 0.00863528, No Iterations 3
DICPCG:  Solving for e, Initial residual = 0.00915044, Final residual = 0.000626551, No Iterations 3
DICPCG:  Solving for e, Initial residual = 0.00101629, Final residual = 6.28147e-07, No Iterations 7
ExecutionTime = 0.386057 s  ClockTime = 0 s

deltaT = 0.15974
Time = 0.92844s

DICPCG:  Solving for e, Initial residual = 0.212429, Final residual = 0.0120534, No Iterations 3
DICPCG:  Solving for e, Initial residual = 0.0124604, Final residual = 0.00105354, No Iterations 3
DICPCG:  Solving for e, Initial residual = 0.00156722, Final residual = 6.12319e-07, No Iterations 8
ExecutionTime = 0.399889 s  ClockTime = 0 s

deltaT = 0.191688
--> FOAM Warning : 
    From function virtual Foam::Time& Foam::Time::operator++()
    in file db/Time/Time.C at line 1304
    Increased the timePrecision from 6 to 7 to distinguish between timeNames at time 1.120128
Time = 1.120128s

DICPCG:  Solving for e, Initial residual = 0.21831, Final residual = 0.0165865, No Iterations 3
DICPCG:  Solving for e, Initial residual = 0.0168559, Final residual = 0.000706196, No Iterations 4
DICPCG:  Solving for e, Initial residual = 0.00171333, Final residual = 8.61853e-07, No Iterations 8
ExecutionTime = 0.413864 s  ClockTime = 0 s

deltaT = 0.230026
Time = 1.350154s

DICPCG:  Solving for e, Initial residual = 0.224412, Final residual = 0.0224331, No Iterations 3
DICPCG:  Solving for e, Initial residual = 0.0225744, Final residual = 0.00116799, No Iterations 4
DICPCG:  Solving for e, Initial residual = 0.00249624, Final residual = 9.93502e-07, No Iterations 9
ExecutionTime = 0.429511 s  ClockTime = 0 s

deltaT = 0.276031
Time = 1.626184s

DICPCG:  Solving for e, Initial residual = 0.230748, Final residual = 0.0123497, No Iterations 4
DICPCG:  Solving for e, Initial residual = 0.0128733, Final residual = 0.000932667, No Iterations 4
DICPCG:  Solving for e, Initial residual = 0.00186632, Final residual = 6.41225e-07, No Iterations 10
ExecutionTime = 0.445284 s  ClockTime = 0 s

deltaT = 0.331237
Time = 1.957421s

DICPCG:  Solving for e, Initial residual = 0.237295, Final residual = 0.0169746, No Iterations 4
DICPCG:  Solving for e, Initial residual = 0.0174273, Final residual = 0.00152891, No Iterations 4
DICPCG:  Solving for e, Initial residual = 0.00278437, Final residual = 8.11419e-07, No Iterations 11
ExecutionTime = 0.461111 s  ClockTime = 0 s

deltaT = 0.397484
Time = 2.354905s

DICPCG:  Solving for e, Initial residual = 0.244114, Final residual = 0.0231949, No Iterations 4
DICPCG:  Solving for e, Initial residual = 0.0236118, Final residual = 0.00134019, No Iterations 5
DICPCG:  Solving for e, Initial residual = 0.00336766, Final residual = 6.64231e-07, No Iterations 12
ExecutionTime = 0.476846 s  ClockTime = 0 s

deltaT = 0.476981
Time = 2.831886s

DICPCG:  Solving for e, Initial residual = 0.251297, Final residual = 0.015171, No Iterations 5
DICPCG:  Solving for e, Initial residual = 0.0163604, Final residual = 0.00104924, No Iterations 5
DICPCG:  Solving for e, Initial residual = 0.00272807, Final residual = 5.15155e-07, No Iterations 13
ExecutionTime = 0.492972 s  ClockTime = 0 s

deltaT = 0.5
Time = 3.331886s

DICPCG:  Solving for e, Initial residual = 0.240707, Final residual = 0.0152487, No Iterations 5
DICPCG:  Solving for e, Initial residual = 0.016244, Final residual = 0.00108484, No Iterations 5
DICPCG:  Solving for e, Initial residual = 0.00279895, Final residual = 5.998e-07, No Iterations 13
ExecutionTime = 0.508945 s  ClockTime = 0 s

deltaT = 0.5
Time = 3.831886s

DICPCG:  Solving for e, Initial residual = 0.226336, Final residual = 0.0140765, No Iterations 5
DICPCG:  Solving for e, Initial residual = 0.0148681, Final residual = 0.000987674, No Iterations 5
DICPCG:  Solving for e, Initial residual = 0.00256716, Final residual = 5.2601e-07, No Iterations 13
ExecutionTime = 0.525047 s  ClockTime = 0 s

deltaT = 0.5
Time = 4.331886s

DICPCG:  Solving for e, Initial residual = 0.214547, Final residual = 0.0131374, No Iterations 5
DICPCG:  Solving for e, Initial residual = 0.0137909, Final residual = 0.000910348, No Iterations 5
DICPCG:  Solving for e, Initial residual = 0.0023812, Final residual = 4.68155e-07, No Iterations 13
ExecutionTime = 0.540791 s  ClockTime = 0 s

deltaT = 0.5
Time = 4.831886s

DICPCG:  Solving for e, Initial residual = 0.204785, Final residual = 0.012366, No Iterations 5
DICPCG:  Solving for e, Initial residual = 0.0129187, Final residual = 0.00084743, No Iterations 5
DICPCG:  Solving for e, Initial residual = 0.00222897, Final residual = 9.82734e-07, No Iterations 12
ExecutionTime = 0.570534 s  ClockTime = 0 s

deltaT = 0.5
Time = 5.331886s

DICPCG:  Solving for e, Initial residual = 0.196606, Final residual = 0.0117233, No Iterations 5
DICPCG:  Solving for e, Initial residual = 0.0121946, Final residual = 0.000795328, No Iterations 5
DICPCG:  Solving for e, Initial residual = 0.00210113, Final residual = 8.94707e-07, No Iterations 12
ExecutionTime = 0.586194 s  ClockTime = 0 s

deltaT = 0.5
Time = 5.831886s

DICPCG:  Solving for e, Initial residual = 0.189626, Final residual = 0.011178, No Iterations 5
DICPCG:  Solving for e, Initial residual = 0.0115806, Final residual = 0.00075114, No Iterations 5
DICPCG:  Solving for e, Initial residual = 0.00199181, Final residual = 8.20746e-07, No Iterations 12
ExecutionTime = 0.601896 s  ClockTime = 0 s

deltaT = 0.5
Time = 6.331886s

DICPCG:  Solving for e, Initial residual = 0.183584, Final residual = 0.010706, No Iterations 5
DICPCG:  Solving for e, Initial residual = 0.0110542, Final residual = 0.000713186, No Iterations 5
DICPCG:  Solving for e, Initial residual = 0.0018971, Final residual = 7.58072e-07, No Iterations 12
ExecutionTime = 0.617563 s  ClockTime = 0 s

deltaT = 0.5
Time = 6.831886s

DICPCG:  Solving for e, Initial residual = 0.178318, Final residual = 0.0102947, No Iterations 5
DICPCG:  Solving for e, Initial residual = 0.0105974, Final residual = 0.000680094, No Iterations 5
DICPCG:  Solving for e, Initial residual = 0.00181425, Final residual = 7.04374e-07, No Iterations 12
ExecutionTime = 0.633309 s  ClockTime = 0 s

deltaT = 0.5
Time = 7.331886s

DICPCG:  Solving for e, Initial residual = 0.173691, Final residual = 0.00992909, No Iterations 5
DICPCG:  Solving for e, Initial residual = 0.0101961, Final residual = 0.000651355, No Iterations 5
DICPCG:  Solving for e, Initial residual = 0.00174099, Final residual = 6.57696e-07, No Iterations 12
ExecutionTime = 0.649147 s  ClockTime = 0 s

deltaT = 0.5
Time = 7.831886s

DICPCG:  Solving for e, Initial residual = 0.169586, Final residual = 0.00960163, No Iterations 5
DICPCG:  Solving for e, Initial residual = 0.00984063, Final residual = 0.000625969, No Iterations 5
DICPCG:  Solving for e, Initial residual = 0.00167557, Final residual = 6.16552e-07, No Iterations 12
ExecutionTime = 0.664845 s  ClockTime = 0 s

deltaT = 0.5
Time = 8.331886s

DICPCG:  Solving for e, Initial residual = 0.165922, Final residual = 0.00930665, No Iterations 5
DICPCG:  Solving for e, Initial residual = 0.00952224, Final residual = 0.000603181, No Iterations 5
DICPCG:  Solving for e, Initial residual = 0.00161633, Final residual = 5.79786e-07, No Iterations 12
ExecutionTime = 0.680395 s  ClockTime = 0 s

deltaT = 0.5
Time = 8.831886s

DICPCG:  Solving for e, Initial residual = 0.16263, Final residual = 0.00903899, No Iterations 5
DICPCG:  Solving for e, Initial residual = 0.00923456, Final residual = 0.000582567, No Iterations 5
DICPCG:  Solving for e, Initial residual = 0.00156276, Final residual = 5.46809e-07, No Iterations 12
ExecutionTime = 0.69603 s  ClockTime = 0 s

deltaT = 0.5
Time = 9.331886s

DICPCG:  Solving for e, Initial residual = 0.159649, Final residual = 0.00879419, No Iterations 5
DICPCG:  Solving for e, Initial residual = 0.00897407, Final residual = 0.000563492, No Iterations 5
DICPCG:  Solving for e, Initial residual = 0.00151352, Final residual = 5.1675e-07, No Iterations 12
ExecutionTime = 0.711667 s  ClockTime = 1 s

deltaT = 0.5
Time = 9.831886s

DICPCG:  Solving for e, Initial residual = 0.156937, Final residual = 0.00856887, No Iterations 5
DICPCG:  Solving for e, Initial residual = 0.0087357, Final residual = 0.000545739, No Iterations 5
DICPCG:  Solving for e, Initial residual = 0.00146802, Final residual = 4.88682e-07, No Iterations 12
ExecutionTime = 0.741264 s  ClockTime = 1 s

deltaT = 0.5
--> FOAM Warning : 
    From function virtual Foam::Time& Foam::Time::operator++()
    in file db/Time/Time.C at line 1304
    Increased the timePrecision from 7 to 8 to distinguish between timeNames at time 10.331886
Time = 10.331886s

DICPCG:  Solving for e, Initial residual = 0.154457, Final residual = 0.00835932, No Iterations 5
DICPCG:  Solving for e, Initial residual = 0.00851497, Final residual = 0.000528859, No Iterations 5
DICPCG:  Solving for e, Initial residual = 0.00142557, Final residual = 4.62262e-07, No Iterations 12
ExecutionTime = 0.756838 s  ClockTime = 1 s

deltaT = 0.5
Time = 10.831886s

DICPCG:  Solving for e, Initial residual = 0.152173, Final residual = 0.00816369, No Iterations 5
DICPCG:  Solving for e, Initial residual = 0.00831201, Final residual = 0.000513076, No Iterations 5
DICPCG:  Solving for e, Initial residual = 0.00138623, Final residual = 4.37897e-07, No Iterations 12
ExecutionTime = 0.772441 s  ClockTime = 1 s

deltaT = 0.5
Time = 11.331886s

DICPCG:  Solving for e, Initial residual = 0.150061, Final residual = 0.00798007, No Iterations 5
DICPCG:  Solving for e, Initial residual = 0.00812443, Final residual = 0.000498118, No Iterations 5
DICPCG:  Solving for e, Initial residual = 0.00135004, Final residual = 9.75339e-07, No Iterations 11
ExecutionTime = 0.787756 s  ClockTime = 1 s

deltaT = 0.5
Time = 11.831886s

DICPCG:  Solving for e, Initial residual = 0.148099, Final residual = 0.00780734, No Iterations 5
DICPCG:  Solving for e, Initial residual = 0.00794853, Final residual = 0.000483945, No Iterations 5
DICPCG:  Solving for e, Initial residual = 0.00131564, Final residual = 9.28353e-07, No Iterations 11
ExecutionTime = 0.803417 s  ClockTime = 1 s

deltaT = 0.5
Time = 12.331886s

DICPCG:  Solving for e, Initial residual = 0.146268, Final residual = 0.00764472, No Iterations 5
DICPCG:  Solving for e, Initial residual = 0.0077845, Final residual = 0.000470359, No Iterations 5
DICPCG:  Solving for e, Initial residual = 0.00128338, Final residual = 8.84484e-07, No Iterations 11
ExecutionTime = 0.819036 s  ClockTime = 1 s

deltaT = 0.5
Time = 12.831886s

DICPCG:  Solving for e, Initial residual = 0.144548, Final residual = 0.00749142, No Iterations 5
DICPCG:  Solving for e, Initial residual = 0.00763022, Final residual = 0.000457777, No Iterations 5
DICPCG:  Solving for e, Initial residual = 0.00125226, Final residual = 8.43475e-07, No Iterations 11
ExecutionTime = 0.835718 s  ClockTime = 1 s

deltaT = 0.5
Time = 13.331886s

DICPCG:  Solving for e, Initial residual = 0.142924, Final residual = 0.00734523, No Iterations 5
DICPCG:  Solving for e, Initial residual = 0.00747971, Final residual = 0.000445905, No Iterations 5
DICPCG:  Solving for e, Initial residual = 0.00122246, Final residual = 8.04441e-07, No Iterations 11
ExecutionTime = 0.852074 s  ClockTime = 1 s

deltaT = 0.5
Time = 13.831886s

DICPCG:  Solving for e, Initial residual = 0.141384, Final residual = 0.00720399, No Iterations 5
DICPCG:  Solving for e, Initial residual = 0.00733036, Final residual = 0.000434439, No Iterations 5
DICPCG:  Solving for e, Initial residual = 0.00119381, Final residual = 7.66375e-07, No Iterations 11
ExecutionTime = 0.8686 s  ClockTime = 1 s

deltaT = 0.5
Time = 14.331886s

DICPCG:  Solving for e, Initial residual = 0.139921, Final residual = 0.0070661, No Iterations 5
DICPCG:  Solving for e, Initial residual = 0.00718811, Final residual = 0.000423646, No Iterations 5
DICPCG:  Solving for e, Initial residual = 0.00116629, Final residual = 7.31076e-07, No Iterations 11
ExecutionTime = 0.884952 s  ClockTime = 1 s

deltaT = 0.5
Time = 14.831886s

DICPCG:  Solving for e, Initial residual = 0.138528, Final residual = 0.00693386, No Iterations 5
DICPCG:  Solving for e, Initial residual = 0.00705105, Final residual = 0.000413344, No Iterations 5
DICPCG:  Solving for e, Initial residual = 0.00113988, Final residual = 6.97628e-07, No Iterations 11
ExecutionTime = 0.916375 s  ClockTime = 1 s

deltaT = 0.5
Time = 15.331886s

DICPCG:  Solving for e, Initial residual = 0.1372, Final residual = 0.00680717, No Iterations 5
DICPCG:  Solving for e, Initial residual = 0.00692008, Final residual = 0.000403486, No Iterations 5
DICPCG:  Solving for e, Initial residual = 0.00111451, Final residual = 6.66047e-07, No Iterations 11
ExecutionTime = 0.932772 s  ClockTime = 1 s

deltaT = 0.5
Time = 15.831886s

DICPCG:  Solving for e, Initial residual = 0.135932, Final residual = 0.0066854, No Iterations 5
DICPCG:  Solving for e, Initial residual = 0.00679498, Final residual = 0.000394038, No Iterations 5
DICPCG:  Solving for e, Initial residual = 0.00109029, Final residual = 6.3629e-07, No Iterations 11
ExecutionTime = 0.949375 s  ClockTime = 1 s

deltaT = 0.5
Time = 16.331886s

DICPCG:  Solving for e, Initial residual = 0.134718, Final residual = 0.00656806, No Iterations 5
DICPCG:  Solving for e, Initial residual = 0.00667423, Final residual = 0.00038498, No Iterations 5
DICPCG:  Solving for e, Initial residual = 0.00106702, Final residual = 6.08184e-07, No Iterations 11
ExecutionTime = 0.966504 s  ClockTime = 1 s

deltaT = 0.5
Time = 16.831886s

DICPCG:  Solving for e, Initial residual = 0.133554, Final residual = 0.00645482, No Iterations 5
DICPCG:  Solving for e, Initial residual = 0.00655772, Final residual = 0.000376212, No Iterations 5
DICPCG:  Solving for e, Initial residual = 0.00104469, Final residual = 5.81515e-07, No Iterations 11
ExecutionTime = 0.983807 s  ClockTime = 1 s

deltaT = 0.5
Time = 17.331886s

DICPCG:  Solving for e, Initial residual = 0.132437, Final residual = 0.0131377, No Iterations 4
DICPCG:  Solving for e, Initial residual = 0.0130154, Final residual = 0.000737354, No Iterations 5
DICPCG:  Solving for e, Initial residual = 0.00186856, Final residual = 4.44923e-07, No Iterations 12
ExecutionTime = 1.00039 s  ClockTime = 1 s

deltaT = 0.5
Time = 17.831886s

DICPCG:  Solving for e, Initial residual = 0.131361, Final residual = 0.0128807, No Iterations 4
DICPCG:  Solving for e, Initial residual = 0.0127586, Final residual = 0.000725056, No Iterations 5
DICPCG:  Solving for e, Initial residual = 0.0018393, Final residual = 9.77591e-07, No Iterations 11
ExecutionTime = 1.01724 s  ClockTime = 1 s

deltaT = 0.5
Time = 18.331886s

DICPCG:  Solving for e, Initial residual = 0.130325, Final residual = 0.0126605, No Iterations 4
DICPCG:  Solving for e, Initial residual = 0.0125394, Final residual = 0.000708681, No Iterations 5
DICPCG:  Solving for e, Initial residual = 0.00180417, Final residual = 9.3713e-07, No Iterations 11
ExecutionTime = 1.03347 s  ClockTime = 1 s

deltaT = 0.5
Time = 18.831886s

DICPCG:  Solving for e, Initial residual = 0.129326, Final residual = 0.0124493, No Iterations 4
DICPCG:  Solving for e, Initial residual = 0.012329, Final residual = 0.0006926, No Iterations 5
DICPCG:  Solving for e, Initial residual = 0.00176996, Final residual = 8.9985e-07, No Iterations 11
ExecutionTime = 1.0498 s  ClockTime = 1 s

deltaT = 0.5
Time = 19.331886s

DICPCG:  Solving for e, Initial residual = 0.128361, Final residual = 0.0122449, No Iterations 4
DICPCG:  Solving for e, Initial residual = 0.0121254, Final residual = 0.000677065, No Iterations 5
DICPCG:  Solving for e, Initial residual = 0.00173687, Final residual = 8.6439e-07, No Iterations 11
ExecutionTime = 1.06597 s  ClockTime = 1 s

deltaT = 0.5
Time = 19.831886s

DICPCG:  Solving for e, Initial residual = 0.127429, Final residual = 0.0120469, No Iterations 4
DICPCG:  Solving for e, Initial residual = 0.0119282, Final residual = 0.00119169, No Iterations 4
DICPCG:  Solving for e, Initial residual = 0.00206322, Final residual = 6.99443e-07, No Iterations 12
ExecutionTime = 1.097 s  ClockTime = 1 s

deltaT = 0.5
Time = 20.331886s

DICPCG:  Solving for e, Initial residual = 0.126524, Final residual = 0.0118643, No Iterations 4
DICPCG:  Solving for e, Initial residual = 0.0117457, Final residual = 0.00116253, No Iterations 4
DICPCG:  Solving for e, Initial residual = 0.0020223, Final residual = 6.70129e-07, No Iterations 12
ExecutionTime = 1.11321 s  ClockTime = 1 s

deltaT = 0.5
Time = 20.831886s

DICPCG:  Solving for e, Initial residual = 0.125648, Final residual = 0.0116781, No Iterations 4
DICPCG:  Solving for e, Initial residual = 0.0115604, Final residual = 0.00113762, No Iterations 4
DICPCG:  Solving for e, Initial residual = 0.00198437, Final residual = 6.42502e-07, No Iterations 12
ExecutionTime = 1.12955 s  ClockTime = 1 s

deltaT = 0.5
Time = 21.331886s

DICPCG:  Solving for e, Initial residual = 0.124798, Final residual = 0.0114968, No Iterations 4
DICPCG:  Solving for e, Initial residual = 0.0113803, Final residual = 0.00111359, No Iterations 4
DICPCG:  Solving for e, Initial residual = 0.00194781, Final residual = 6.16303e-07, No Iterations 12
ExecutionTime = 1.1466 s  ClockTime = 1 s

deltaT = 0.5
Time = 21.831886s

DICPCG:  Solving for e, Initial residual = 0.123972, Final residual = 0.0113204, No Iterations 4
DICPCG:  Solving for e, Initial residual = 0.0112052, Final residual = 0.00109031, No Iterations 4
DICPCG:  Solving for e, Initial residual = 0.00191234, Final residual = 5.91394e-07, No Iterations 12
ExecutionTime = 1.16341 s  ClockTime = 1 s

deltaT = 0.5
Time = 22.331886s

DICPCG:  Solving for e, Initial residual = 0.12317, Final residual = 0.011149, No Iterations 4
DICPCG:  Solving for e, Initial residual = 0.0110351, Final residual = 0.00106775, No Iterations 4
DICPCG:  Solving for e, Initial residual = 0.00187791, Final residual = 5.67701e-07, No Iterations 12
ExecutionTime = 1.18007 s  ClockTime = 1 s

deltaT = 0.5
Time = 22.831886s

DICPCG:  Solving for e, Initial residual = 0.122389, Final residual = 0.0109822, No Iterations 4
DICPCG:  Solving for e, Initial residual = 0.0108697, Final residual = 0.00104587, No Iterations 4
DICPCG:  Solving for e, Initial residual = 0.00184446, Final residual = 5.45156e-07, No Iterations 12
ExecutionTime = 1.19681 s  ClockTime = 1 s

deltaT = 0.5
Time = 23.331886s

DICPCG:  Solving for e, Initial residual = 0.121627, Final residual = 0.0108197, No Iterations 4
DICPCG:  Solving for e, Initial residual = 0.0107087, Final residual = 0.00102464, No Iterations 4
DICPCG:  Solving for e, Initial residual = 0.00181194, Final residual = 5.23691e-07, No Iterations 12
ExecutionTime = 1.21329 s  ClockTime = 1 s

deltaT = 0.5
Time = 23.831886s

DICPCG:  Solving for e, Initial residual = 0.120884, Final residual = 0.0106613, No Iterations 4
DICPCG:  Solving for e, Initial residual = 0.0105519, Final residual = 0.00100404, No Iterations 4
DICPCG:  Solving for e, Initial residual = 0.00178032, Final residual = 5.0325e-07, No Iterations 12
ExecutionTime = 1.22998 s  ClockTime = 1 s

deltaT = 0.5
Time = 24.331886s

DICPCG:  Solving for e, Initial residual = 0.120159, Final residual = 0.0105067, No Iterations 4
DICPCG:  Solving for e, Initial residual = 0.0103991, Final residual = 0.00098404, No Iterations 4
DICPCG:  Solving for e, Initial residual = 0.00174956, Final residual = 4.8376e-07, No Iterations 12
ExecutionTime = 1.24655 s  ClockTime = 1 s

deltaT = 0.5
Time = 24.831886s

DICPCG:  Solving for e, Initial residual = 0.11945, Final residual = 0.0103559, No Iterations 4
DICPCG:  Solving for e, Initial residual = 0.01025, Final residual = 0.000964598, No Iterations 4
DICPCG:  Solving for e, Initial residual = 0.0017196, Final residual = 9.74024e-07, No Iterations 11
ExecutionTime = 1.27825 s  ClockTime = 1 s

deltaT = 0.5
Time = 25.331886s

DICPCG:  Solving for e, Initial residual = 0.118758, Final residual = 0.0102088, No Iterations 4
DICPCG:  Solving for e, Initial residual = 0.0101046, Final residual = 0.000945701, No Iterations 4
DICPCG:  Solving for e, Initial residual = 0.00169041, Final residual = 9.37325e-07, No Iterations 11
ExecutionTime = 1.29458 s  ClockTime = 1 s

deltaT = 0.5
Time = 25.831886s

DICPCG:  Solving for e, Initial residual = 0.11808, Final residual = 0.010065, No Iterations 4
DICPCG:  Solving for e, Initial residual = 0.00996259, Final residual = 0.000927311, No Iterations 4
DICPCG:  Solving for e, Initial residual = 0.00166198, Final residual = 9.02157e-07, No Iterations 11
ExecutionTime = 1.31102 s  ClockTime = 1 s

deltaT = 0.5
Time = 26.331886s

DICPCG:  Solving for e, Initial residual = 0.117416, Final residual = 0.00992461, No Iterations 4
DICPCG:  Solving for e, Initial residual = 0.00982399, Final residual = 0.000909405, No Iterations 4
DICPCG:  Solving for e, Initial residual = 0.00163425, Final residual = 8.68477e-07, No Iterations 11
ExecutionTime = 1.32731 s  ClockTime = 1 s

deltaT = 0.5
Time = 26.831886s

DICPCG:  Solving for e, Initial residual = 0.116765, Final residual = 0.00978737, No Iterations 4
DICPCG:  Solving for e, Initial residual = 0.00968861, Final residual = 0.000891968, No Iterations 4
DICPCG:  Solving for e, Initial residual = 0.0016072, Final residual = 8.36221e-07, No Iterations 11
ExecutionTime = 1.34379 s  ClockTime = 1 s

deltaT = 0.5
Time = 27.331886s

DICPCG:  Solving for e, Initial residual = 0.116128, Final residual = 0.00965317, No Iterations 4
DICPCG:  Solving for e, Initial residual = 0.00955627, Final residual = 0.000874995, No Iterations 4
DICPCG:  Solving for e, Initial residual = 0.0015808, Final residual = 8.05314e-07, No Iterations 11
ExecutionTime = 1.35991 s  ClockTime = 1 s

deltaT = 0.5
Time = 27.831886s

DICPCG:  Solving for e, Initial residual = 0.115502, Final residual = 0.00952191, No Iterations 4
DICPCG:  Solving for e, Initial residual = 0.00942677, Final residual = 0.000858463, No Iterations 4
DICPCG:  Solving for e, Initial residual = 0.00155503, Final residual = 7.75683e-07, No Iterations 11
ExecutionTime = 1.37621 s  ClockTime = 1 s

deltaT = 0.5
Time = 28.331886s

DICPCG:  Solving for e, Initial residual = 0.114887, Final residual = 0.00939344, No Iterations 4
DICPCG:  Solving for e, Initial residual = 0.00930008, Final residual = 0.000842368, No Iterations 4
DICPCG:  Solving for e, Initial residual = 0.00152989, Final residual = 7.47267e-07, No Iterations 11
ExecutionTime = 1.3924 s  ClockTime = 1 s

deltaT = 0.5
Time = 28.831886s

DICPCG:  Solving for e, Initial residual = 0.114283, Final residual = 0.0092677, No Iterations 4
DICPCG:  Solving for e, Initial residual = 0.00917613, Final residual = 0.000826683, No Iterations 4
DICPCG:  Solving for e, Initial residual = 0.00150534, Final residual = 7.20014e-07, No Iterations 11
ExecutionTime = 1.40852 s  ClockTime = 1 s

deltaT = 0.5
Time = 29.331886s

DICPCG:  Solving for e, Initial residual = 0.11369, Final residual = 0.00914461, No Iterations 4
DICPCG:  Solving for e, Initial residual = 0.00905482, Final residual = 0.000811407, No Iterations 4
DICPCG:  Solving for e, Initial residual = 0.00148138, Final residual = 6.93861e-07, No Iterations 11
ExecutionTime = 1.4245 s  ClockTime = 1 s

deltaT = 0.5
Time = 29.831886s

DICPCG:  Solving for e, Initial residual = 0.113107, Final residual = 0.00902411, No Iterations 4
DICPCG:  Solving for e, Initial residual = 0.00893598, Final residual = 0.00079653, No Iterations 4
DICPCG:  Solving for e, Initial residual = 0.00145797, Final residual = 6.68787e-07, No Iterations 11
ExecutionTime = 1.45704 s  ClockTime = 1 s

deltaT = 0.5
Time = 30.331886s

DICPCG:  Solving for e, Initial residual = 0.112534, Final residual = 0.0089062, No Iterations 4
DICPCG:  Solving for e, Initial residual = 0.00881963, Final residual = 0.000782062, No Iterations 4
DICPCG:  Solving for e, Initial residual = 0.00143512, Final residual = 6.44736e-07, No Iterations 11
ExecutionTime = 1.47463 s  ClockTime = 1 s

deltaT = 0.5
Time = 30.831886s

DICPCG:  Solving for e, Initial residual = 0.11197, Final residual = 0.00879071, No Iterations 4
DICPCG:  Solving for e, Initial residual = 0.00870621, Final residual = 0.000767862, No Iterations 4
DICPCG:  Solving for e, Initial residual = 0.00141272, Final residual = 6.21719e-07, No Iterations 11
ExecutionTime = 1.49225 s  ClockTime = 1 s

deltaT = 0.5
Time = 31.331886s

DICPCG:  Solving for e, Initial residual = 0.111416, Final residual = 0.00867746, No Iterations 4
DICPCG:  Solving for e, Initial residual = 0.00859547, Final residual = 0.000753889, No Iterations 4
DICPCG:  Solving for e, Initial residual = 0.00139079, Final residual = 5.99661e-07, No Iterations 11
ExecutionTime = 1.5097 s  ClockTime = 1 s

deltaT = 0.5
Time = 31.831886s

DICPCG:  Solving for e, Initial residual = 0.11087, Final residual = 0.00856633, No Iterations 4
DICPCG:  Solving for e, Initial residual = 0.00848676, Final residual = 0.000740302, No Iterations 4
DICPCG:  Solving for e, Initial residual = 0.0013694, Final residual = 5.78452e-07, No Iterations 11
ExecutionTime = 1.52728 s  ClockTime = 1 s

deltaT = 0.5
Time = 32.331886s

DICPCG:  Solving for e, Initial residual = 0.110333, Final residual = 0.0084572, No Iterations 4
DICPCG:  Solving for e, Initial residual = 0.00837931, Final residual = 0.000726996, No Iterations 4
DICPCG:  Solving for e, Initial residual = 0.00134841, Final residual = 5.58057e-07, No Iterations 11
ExecutionTime = 1.54437 s  ClockTime = 1 s

deltaT = 0.5
Time = 32.831886s

DICPCG:  Solving for e, Initial residual = 0.109803, Final residual = 0.00834992, No Iterations 4
DICPCG:  Solving for e, Initial residual = 0.00827333, Final residual = 0.000714024, No Iterations 4
DICPCG:  Solving for e, Initial residual = 0.0013278, Final residual = 5.38447e-07, No Iterations 11
ExecutionTime = 1.56168 s  ClockTime = 1 s

deltaT = 0.5
Time = 33.331886s

DICPCG:  Solving for e, Initial residual = 0.109282, Final residual = 0.0082443, No Iterations 4
DICPCG:  Solving for e, Initial residual = 0.00816867, Final residual = 0.000701436, No Iterations 4
DICPCG:  Solving for e, Initial residual = 0.0013077, Final residual = 5.19584e-07, No Iterations 11
ExecutionTime = 1.5789 s  ClockTime = 1 s

deltaT = 0.5
Time = 33.831886s

DICPCG:  Solving for e, Initial residual = 0.108768, Final residual = 0.00814058, No Iterations 4
DICPCG:  Solving for e, Initial residual = 0.00806571, Final residual = 0.000689138, No Iterations 4
DICPCG:  Solving for e, Initial residual = 0.00128803, Final residual = 5.01452e-07, No Iterations 11
ExecutionTime = 1.59616 s  ClockTime = 1 s

deltaT = 0.5
Time = 34.331886s

DICPCG:  Solving for e, Initial residual = 0.108261, Final residual = 0.00803883, No Iterations 4
DICPCG:  Solving for e, Initial residual = 0.00796494, Final residual = 0.000677115, No Iterations 4
DICPCG:  Solving for e, Initial residual = 0.00126878, Final residual = 4.84069e-07, No Iterations 11
ExecutionTime = 1.61363 s  ClockTime = 1 s

deltaT = 0.5
Time = 34.831886s

DICPCG:  Solving for e, Initial residual = 0.10776, Final residual = 0.00793885, No Iterations 4
DICPCG:  Solving for e, Initial residual = 0.00786636, Final residual = 0.000665386, No Iterations 4
DICPCG:  Solving for e, Initial residual = 0.00125001, Final residual = 4.6737e-07, No Iterations 11
ExecutionTime = 1.64749 s  ClockTime = 1 s

deltaT = 0.5
Time = 35.331886s

DICPCG:  Solving for e, Initial residual = 0.107267, Final residual = 0.00784055, No Iterations 4
DICPCG:  Solving for e, Initial residual = 0.00777008, Final residual = 0.000654005, No Iterations 4
DICPCG:  Solving for e, Initial residual = 0.00123158, Final residual = 4.51346e-07, No Iterations 11
ExecutionTime = 1.6651 s  ClockTime = 1 s

deltaT = 0.5
Time = 35.831886s

DICPCG:  Solving for e, Initial residual = 0.10678, Final residual = 0.00774407, No Iterations 4
DICPCG:  Solving for e, Initial residual = 0.00767565, Final residual = 0.00064285, No Iterations 4
DICPCG:  Solving for e, Initial residual = 0.00121352, Final residual = 4.35907e-07, No Iterations 11
ExecutionTime = 1.6826 s  ClockTime = 1 s

deltaT = 0.5
Time = 36.331886s

DICPCG:  Solving for e, Initial residual = 0.106298, Final residual = 0.00764939, No Iterations 4
DICPCG:  Solving for e, Initial residual = 0.00758258, Final residual = 0.000631892, No Iterations 4
DICPCG:  Solving for e, Initial residual = 0.00119572, Final residual = 9.78378e-07, No Iterations 10
ExecutionTime = 1.69973 s  ClockTime = 1 s

deltaT = 0.5
Time = 36.831886s

DICPCG:  Solving for e, Initial residual = 0.105823, Final residual = 0.00755635, No Iterations 4
DICPCG:  Solving for e, Initial residual = 0.0074912, Final residual = 0.000621161, No Iterations 4
DICPCG:  Solving for e, Initial residual = 0.0011783, Final residual = 9.46765e-07, No Iterations 10
ExecutionTime = 1.71679 s  ClockTime = 2 s

deltaT = 0.5
Time = 37.331886s

DICPCG:  Solving for e, Initial residual = 0.105354, Final residual = 0.00746518, No Iterations 4
DICPCG:  Solving for e, Initial residual = 0.00740138, Final residual = 0.000610718, No Iterations 4
DICPCG:  Solving for e, Initial residual = 0.00116124, Final residual = 9.16548e-07, No Iterations 10
ExecutionTime = 1.73369 s  ClockTime = 2 s

deltaT = 0.5
Time = 37.831886s

DICPCG:  Solving for e, Initial residual = 0.104889, Final residual = 0.00737601, No Iterations 4
DICPCG:  Solving for e, Initial residual = 0.0073132, Final residual = 0.000600617, No Iterations 4
DICPCG:  Solving for e, Initial residual = 0.00114476, Final residual = 8.87468e-07, No Iterations 10
ExecutionTime = 1.75069 s  ClockTime = 2 s

deltaT = 0.5
Time = 38.331886s

DICPCG:  Solving for e, Initial residual = 0.10443, Final residual = 0.00728866, No Iterations 4
DICPCG:  Solving for e, Initial residual = 0.00722689, Final residual = 0.000590809, No Iterations 4
DICPCG:  Solving for e, Initial residual = 0.00112867, Final residual = 8.58973e-07, No Iterations 10
ExecutionTime = 1.76756 s  ClockTime = 2 s

deltaT = 0.5
Time = 38.831886s

DICPCG:  Solving for e, Initial residual = 0.103976, Final residual = 0.0072027, No Iterations 4
DICPCG:  Solving for e, Initial residual = 0.00714279, Final residual = 0.000581208, No Iterations 4
DICPCG:  Solving for e, Initial residual = 0.00111292, Final residual = 8.31013e-07, No Iterations 10
ExecutionTime = 1.78472 s  ClockTime = 2 s

deltaT = 0.5
Time = 39.331886s

DICPCG:  Solving for e, Initial residual = 0.103526, Final residual = 0.00711751, No Iterations 4
DICPCG:  Solving for e, Initial residual = 0.00706043, Final residual = 0.000571733, No Iterations 4
DICPCG:  Solving for e, Initial residual = 0.00109757, Final residual = 8.03831e-07, No Iterations 10
ExecutionTime = 1.80168 s  ClockTime = 2 s

deltaT = 0.5
Time = 39.831886s

DICPCG:  Solving for e, Initial residual = 0.103082, Final residual = 0.00703353, No Iterations 4
DICPCG:  Solving for e, Initial residual = 0.00697808, Final residual = 0.000562382, No Iterations 4
DICPCG:  Solving for e, Initial residual = 0.00108231, Final residual = 7.77334e-07, No Iterations 10
ExecutionTime = 1.83509 s  ClockTime = 2 s

deltaT = 0.5
Time = 40.331886s

DICPCG:  Solving for e, Initial residual = 0.102642, Final residual = 0.00695053, No Iterations 4
DICPCG:  Solving for e, Initial residual = 0.00689703, Final residual = 0.000552976, No Iterations 4
DICPCG:  Solving for e, Initial residual = 0.00106678, Final residual = 7.51615e-07, No Iterations 10
ExecutionTime = 1.85217 s  ClockTime = 2 s

deltaT = 0.5
Time = 40.831886s

DICPCG:  Solving for e, Initial residual = 0.102206, Final residual = 0.00686872, No Iterations 4
DICPCG:  Solving for e, Initial residual = 0.00681767, Final residual = 0.000543541, No Iterations 4
DICPCG:  Solving for e, Initial residual = 0.00105139, Final residual = 7.26673e-07, No Iterations 10
ExecutionTime = 1.86942 s  ClockTime = 2 s

deltaT = 0.5
Time = 41.331886s

DICPCG:  Solving for e, Initial residual = 0.101775, Final residual = 0.006788, No Iterations 4
DICPCG:  Solving for e, Initial residual = 0.00673755, Final residual = 0.000533959, No Iterations 4
DICPCG:  Solving for e, Initial residual = 0.00103581, Final residual = 7.02667e-07, No Iterations 10
ExecutionTime = 1.88656 s  ClockTime = 2 s

deltaT = 0.5
Time = 41.831886s

DICPCG:  Solving for e, Initial residual = 0.101348, Final residual = 0.00670857, No Iterations 4
DICPCG:  Solving for e, Initial residual = 0.0066589, Final residual = 0.000524691, No Iterations 4
DICPCG:  Solving for e, Initial residual = 0.0010205, Final residual = 6.79432e-07, No Iterations 10
ExecutionTime = 1.90373 s  ClockTime = 2 s

deltaT = 0.5
Time = 42.331886s

DICPCG:  Solving for e, Initial residual = 0.100925, Final residual = 0.00663049, No Iterations 4
DICPCG:  Solving for e, Initial residual = 0.0065799, Final residual = 0.000515623, No Iterations 4
DICPCG:  Solving for e, Initial residual = 0.00100611, Final residual = 6.56954e-07, No Iterations 10
ExecutionTime = 1.92084 s  ClockTime = 2 s

deltaT = 0.5
Time = 42.831886s

DICPCG:  Solving for e, Initial residual = 0.100503, Final residual = 0.00655391, No Iterations 4
DICPCG:  Solving for e, Initial residual = 0.0065031, Final residual = 0.000506994, No Iterations 4
DICPCG:  Solving for e, Initial residual = 0.000992182, Final residual = 6.35002e-07, No Iterations 10
ExecutionTime = 1.93802 s  ClockTime = 2 s

deltaT = 0.5
Time = 43.331886s

DICPCG:  Solving for e, Initial residual = 0.100084, Final residual = 0.0064787, No Iterations 4
DICPCG:  Solving for e, Initial residual = 0.0064308, Final residual = 0.000498569, No Iterations 4
DICPCG:  Solving for e, Initial residual = 0.000978688, Final residual = 6.142e-07, No Iterations 10
ExecutionTime = 1.9556 s  ClockTime = 2 s

deltaT = 0.5
Time = 43.831886s

DICPCG:  Solving for e, Initial residual = 0.0996653, Final residual = 0.0064039, No Iterations 4
DICPCG:  Solving for e, Initial residual = 0.00635838, Final residual = 0.000490154, No Iterations 4
DICPCG:  Solving for e, Initial residual = 0.000964761, Final residual = 5.93513e-07, No Iterations 10
ExecutionTime = 1.97258 s  ClockTime = 2 s

deltaT = 0.5
Time = 44.331886s

DICPCG:  Solving for e, Initial residual = 0.0992488, Final residual = 0.00632882, No Iterations 4
DICPCG:  Solving for e, Initial residual = 0.00628483, Final residual = 0.000481963, No Iterations 4
DICPCG:  Solving for e, Initial residual = 0.000951121, Final residual = 5.73425e-07, No Iterations 10
ExecutionTime = 1.98938 s  ClockTime = 2 s

deltaT = 0.5
Time = 44.831886s

DICPCG:  Solving for e, Initial residual = 0.0988341, Final residual = 0.00625332, No Iterations 4
DICPCG:  Solving for e, Initial residual = 0.00621018, Final residual = 0.000473798, No Iterations 4
DICPCG:  Solving for e, Initial residual = 0.000937451, Final residual = 5.53847e-07, No Iterations 10
ExecutionTime = 2.02268 s  ClockTime = 2 s

deltaT = 0.5
Time = 45.331886s

DICPCG:  Solving for e, Initial residual = 0.0984215, Final residual = 0.00617887, No Iterations 4
DICPCG:  Solving for e, Initial residual = 0.00613669, Final residual = 0.000465797, No Iterations 4
DICPCG:  Solving for e, Initial residual = 0.000923996, Final residual = 5.34978e-07, No Iterations 10
ExecutionTime = 2.03952 s  ClockTime = 2 s

deltaT = 0.5
Time = 45.831886s

DICPCG:  Solving for e, Initial residual = 0.0980112, Final residual = 0.00610562, No Iterations 4
DICPCG:  Solving for e, Initial residual = 0.0060644, Final residual = 0.00045796, No Iterations 4
DICPCG:  Solving for e, Initial residual = 0.000910798, Final residual = 5.16823e-07, No Iterations 10
ExecutionTime = 2.05696 s  ClockTime = 2 s

deltaT = 0.5
Time = 46.331886s

DICPCG:  Solving for e, Initial residual = 0.0976034, Final residual = 0.00603353, No Iterations 4
DICPCG:  Solving for e, Initial residual = 0.00599332, Final residual = 0.000450287, No Iterations 4
DICPCG:  Solving for e, Initial residual = 0.000897853, Final residual = 4.99354e-07, No Iterations 10
ExecutionTime = 2.07389 s  ClockTime = 2 s

deltaT = 0.5
Time = 46.831886s

DICPCG:  Solving for e, Initial residual = 0.0971984, Final residual = 0.00596263, No Iterations 4
DICPCG:  Solving for e, Initial residual = 0.00592344, Final residual = 0.000442776, No Iterations 4
DICPCG:  Solving for e, Initial residual = 0.000885157, Final residual = 9.99571e-07, No Iterations 9
ExecutionTime = 2.09062 s  ClockTime = 2 s

deltaT = 0.5
Time = 47.331886s

DICPCG:  Solving for e, Initial residual = 0.0967963, Final residual = 0.00589307, No Iterations 4
DICPCG:  Solving for e, Initial residual = 0.00585486, Final residual = 0.000435429, No Iterations 4
DICPCG:  Solving for e, Initial residual = 0.000872674, Final residual = 9.68893e-07, No Iterations 9
ExecutionTime = 2.10717 s  ClockTime = 2 s

deltaT = 0.5
Time = 47.831886s

DICPCG:  Solving for e, Initial residual = 0.096397, Final residual = 0.00582453, No Iterations 4
DICPCG:  Solving for e, Initial residual = 0.00578727, Final residual = 0.000428232, No Iterations 4
DICPCG:  Solving for e, Initial residual = 0.00086046, Final residual = 9.39158e-07, No Iterations 9
ExecutionTime = 2.12385 s  ClockTime = 2 s

deltaT = 0.5
Time = 48.331886s

DICPCG:  Solving for e, Initial residual = 0.0960007, Final residual = 0.00575711, No Iterations 4
DICPCG:  Solving for e, Initial residual = 0.0057208, Final residual = 0.000421192, No Iterations 4
DICPCG:  Solving for e, Initial residual = 0.000848482, Final residual = 9.1039e-07, No Iterations 9
ExecutionTime = 2.14048 s  ClockTime = 2 s

deltaT = 0.5
Time = 48.831886s

DICPCG:  Solving for e, Initial residual = 0.0956076, Final residual = 0.00569082, No Iterations 4
DICPCG:  Solving for e, Initial residual = 0.0056554, Final residual = 0.000414297, No Iterations 4
DICPCG:  Solving for e, Initial residual = 0.00083674, Final residual = 8.82559e-07, No Iterations 9
ExecutionTime = 2.15769 s  ClockTime = 2 s

deltaT = 0.5
Time = 49.331886s

DICPCG:  Solving for e, Initial residual = 0.0952177, Final residual = 0.00562563, No Iterations 4
DICPCG:  Solving for e, Initial residual = 0.00559107, Final residual = 0.000407547, No Iterations 4
DICPCG:  Solving for e, Initial residual = 0.000825211, Final residual = 8.5565e-07, No Iterations 9
ExecutionTime = 2.17428 s  ClockTime = 2 s

deltaT = 0.5
Time = 49.831886s

DICPCG:  Solving for e, Initial residual = 0.0948311, Final residual = 0.00556151, No Iterations 4
DICPCG:  Solving for e, Initial residual = 0.00552782, Final residual = 0.000400936, No Iterations 4
DICPCG:  Solving for e, Initial residual = 0.0008139, Final residual = 8.29627e-07, No Iterations 9
ExecutionTime = 2.20685 s  ClockTime = 2 s

deltaT = 0.5
Time = 50.331886s

DICPCG:  Solving for e, Initial residual = 0.0944477, Final residual = 0.00549847, No Iterations 4
DICPCG:  Solving for e, Initial residual = 0.00546562, Final residual = 0.000394463, No Iterations 4
DICPCG:  Solving for e, Initial residual = 0.000802808, Final residual = 8.04447e-07, No Iterations 9
ExecutionTime = 2.22433 s  ClockTime = 2 s

deltaT = 0.5
Time = 50.831886s

DICPCG:  Solving for e, Initial residual = 0.0940675, Final residual = 0.00543645, No Iterations 4
DICPCG:  Solving for e, Initial residual = 0.00540441, Final residual = 0.000388122, No Iterations 4
DICPCG:  Solving for e, Initial residual = 0.00079192, Final residual = 7.80085e-07, No Iterations 9
ExecutionTime = 2.24231 s  ClockTime = 2 s

deltaT = 0.5
Time = 51.331886s

DICPCG:  Solving for e, Initial residual = 0.0936904, Final residual = 0.00537543, No Iterations 4
DICPCG:  Solving for e, Initial residual = 0.00534421, Final residual = 0.000381908, No Iterations 4
DICPCG:  Solving for e, Initial residual = 0.000781235, Final residual = 7.56518e-07, No Iterations 9
ExecutionTime = 2.26008 s  ClockTime = 2 s

deltaT = 0.5
Time = 51.831886s

DICPCG:  Solving for e, Initial residual = 0.0933167, Final residual = 0.00531542, No Iterations 4
DICPCG:  Solving for e, Initial residual = 0.00528499, Final residual = 0.000375819, No Iterations 4
DICPCG:  Solving for e, Initial residual = 0.000770747, Final residual = 7.33721e-07, No Iterations 9
ExecutionTime = 2.27797 s  ClockTime = 2 s

deltaT = 0.5
Time = 52.331886s

DICPCG:  Solving for e, Initial residual = 0.0929461, Final residual = 0.00525639, No Iterations 4
DICPCG:  Solving for e, Initial residual = 0.00522674, Final residual = 0.000369856, No Iterations 4
DICPCG:  Solving for e, Initial residual = 0.000760454, Final residual = 7.11672e-07, No Iterations 9
ExecutionTime = 2.29574 s  ClockTime = 2 s

deltaT = 0.5
Time = 52.831886s

DICPCG:  Solving for e, Initial residual = 0.0925788, Final residual = 0.00519832, No Iterations 4
DICPCG:  Solving for e, Initial residual = 0.00516947, Final residual = 0.000364012, No Iterations 4
DICPCG:  Solving for e, Initial residual = 0.000750356, Final residual = 6.90329e-07, No Iterations 9
ExecutionTime = 2.31367 s  ClockTime = 2 s

deltaT = 0.5
Time = 53.331886s

DICPCG:  Solving for e, Initial residual = 0.0922146, Final residual = 0.00514119, No Iterations 4
DICPCG:  Solving for e, Initial residual = 0.00511317, Final residual = 0.000358287, No Iterations 4
DICPCG:  Solving for e, Initial residual = 0.000740442, Final residual = 6.69683e-07, No Iterations 9
ExecutionTime = 2.33148 s  ClockTime = 2 s

deltaT = 0.5
Time = 53.831886s

DICPCG:  Solving for e, Initial residual = 0.0918536, Final residual = 0.00508499, No Iterations 4
DICPCG:  Solving for e, Initial residual = 0.00505781, Final residual = 0.000352679, No Iterations 4
DICPCG:  Solving for e, Initial residual = 0.000730717, Final residual = 6.49717e-07, No Iterations 9
ExecutionTime = 2.34935 s  ClockTime = 2 s

deltaT = 0.5
Time = 54.331886s

DICPCG:  Solving for e, Initial residual = 0.0914957, Final residual = 0.00502974, No Iterations 4
DICPCG:  Solving for e, Initial residual = 0.00500335, Final residual = 0.000347182, No Iterations 4
DICPCG:  Solving for e, Initial residual = 0.000721168, Final residual = 6.30394e-07, No Iterations 9
ExecutionTime = 2.36716 s  ClockTime = 2 s

deltaT = 0.5
Time = 54.831886s

DICPCG:  Solving for e, Initial residual = 0.0911409, Final residual = 0.00497538, No Iterations 4
DICPCG:  Solving for e, Initial residual = 0.00494977, Final residual = 0.000341798, No Iterations 4
DICPCG:  Solving for e, Initial residual = 0.000711792, Final residual = 6.11685e-07, No Iterations 9
ExecutionTime = 2.40219 s  ClockTime = 2 s

deltaT = 0.5
Time = 55.331886s

DICPCG:  Solving for e, Initial residual = 0.0907891, Final residual = 0.00492188, No Iterations 4
DICPCG:  Solving for e, Initial residual = 0.00489707, Final residual = 0.000336523, No Iterations 4
DICPCG:  Solving for e, Initial residual = 0.000702583, Final residual = 5.93599e-07, No Iterations 9
ExecutionTime = 2.42012 s  ClockTime = 2 s

deltaT = 0.5
Time = 55.831886s

DICPCG:  Solving for e, Initial residual = 0.0904404, Final residual = 0.00486923, No Iterations 4
DICPCG:  Solving for e, Initial residual = 0.00484521, Final residual = 0.000331351, No Iterations 4
DICPCG:  Solving for e, Initial residual = 0.000693538, Final residual = 5.76117e-07, No Iterations 9
ExecutionTime = 2.43827 s  ClockTime = 2 s

deltaT = 0.5
Time = 56.331886s

DICPCG:  Solving for e, Initial residual = 0.0900948, Final residual = 0.00481742, No Iterations 4
DICPCG:  Solving for e, Initial residual = 0.00479418, Final residual = 0.00032628, No Iterations 4
DICPCG:  Solving for e, Initial residual = 0.000684654, Final residual = 5.59209e-07, No Iterations 9
ExecutionTime = 2.45686 s  ClockTime = 2 s

deltaT = 0.5
Time = 56.831886s

DICPCG:  Solving for e, Initial residual = 0.0897522, Final residual = 0.00476644, No Iterations 4
DICPCG:  Solving for e, Initial residual = 0.00474395, Final residual = 0.000321308, No Iterations 4
DICPCG:  Solving for e, Initial residual = 0.000675926, Final residual = 5.4284e-07, No Iterations 9
ExecutionTime = 2.47511 s  ClockTime = 2 s

deltaT = 0.5
Time = 57.331886s

DICPCG:  Solving for e, Initial residual = 0.0894124, Final residual = 0.00471626, No Iterations 4
DICPCG:  Solving for e, Initial residual = 0.00469448, Final residual = 0.000316431, No Iterations 4
DICPCG:  Solving for e, Initial residual = 0.00066735, Final residual = 5.26992e-07, No Iterations 9
ExecutionTime = 2.49284 s  ClockTime = 2 s

deltaT = 0.5
Time = 57.831886s

DICPCG:  Solving for e, Initial residual = 0.0890757, Final residual = 0.00466687, No Iterations 4
DICPCG:  Solving for e, Initial residual = 0.00464577, Final residual = 0.000311649, No Iterations 4
DICPCG:  Solving for e, Initial residual = 0.000658928, Final residual = 5.11657e-07, No Iterations 9
ExecutionTime = 2.51067 s  ClockTime = 2 s

deltaT = 0.5
Time = 58.331886s

DICPCG:  Solving for e, Initial residual = 0.0887417, Final residual = 0.00461825, No Iterations 4
DICPCG:  Solving for e, Initial residual = 0.0045978, Final residual = 0.00030696, No Iterations 4
DICPCG:  Solving for e, Initial residual = 0.000650655, Final residual = 4.96819e-07, No Iterations 9
ExecutionTime = 2.52826 s  ClockTime = 2 s

deltaT = 0.5
Time = 58.831886s

DICPCG:  Solving for e, Initial residual = 0.0884105, Final residual = 0.00457038, No Iterations 4
DICPCG:  Solving for e, Initial residual = 0.00455055, Final residual = 0.00030236, No Iterations 4
DICPCG:  Solving for e, Initial residual = 0.000642524, Final residual = 4.82464e-07, No Iterations 9
ExecutionTime = 2.54611 s  ClockTime = 2 s

deltaT = 0.5
Time = 59.331886s

DICPCG:  Solving for e, Initial residual = 0.0880821, Final residual = 0.00452323, No Iterations 4
DICPCG:  Solving for e, Initial residual = 0.00450404, Final residual = 0.000297848, No Iterations 4
DICPCG:  Solving for e, Initial residual = 0.000634535, Final residual = 4.68572e-07, No Iterations 9
ExecutionTime = 2.56376 s  ClockTime = 2 s

deltaT = 0.5
Time = 59.831886s

DICPCG:  Solving for e, Initial residual = 0.0877567, Final residual = 0.0044768, No Iterations 4
DICPCG:  Solving for e, Initial residual = 0.00445825, Final residual = 0.000293424, No Iterations 4
DICPCG:  Solving for e, Initial residual = 0.000626687, Final residual = 4.55136e-07, No Iterations 9
ExecutionTime = 2.59876 s  ClockTime = 2 s

deltaT = 0.5
Time = 60.331886s

DICPCG:  Solving for e, Initial residual = 0.087434, Final residual = 0.00443107, No Iterations 4
DICPCG:  Solving for e, Initial residual = 0.00441317, Final residual = 0.000289085, No Iterations 4
DICPCG:  Solving for e, Initial residual = 0.000618976, Final residual = 9.8392e-07, No Iterations 8
ExecutionTime = 2.61624 s  ClockTime = 2 s

deltaT = 0.5
Time = 60.831886s

DICPCG:  Solving for e, Initial residual = 0.0871139, Final residual = 0.00438589, No Iterations 4
DICPCG:  Solving for e, Initial residual = 0.00436866, Final residual = 0.000284825, No Iterations 4
DICPCG:  Solving for e, Initial residual = 0.000611452, Final residual = 9.57474e-07, No Iterations 8
ExecutionTime = 2.63398 s  ClockTime = 2 s

deltaT = 0.5
Time = 61.331886s

DICPCG:  Solving for e, Initial residual = 0.0867965, Final residual = 0.00434152, No Iterations 4
DICPCG:  Solving for e, Initial residual = 0.00432491, Final residual = 0.000280645, No Iterations 4
DICPCG:  Solving for e, Initial residual = 0.000604004, Final residual = 9.32145e-07, No Iterations 8
ExecutionTime = 2.65187 s  ClockTime = 2 s

deltaT = 0.5
Time = 61.831886s

DICPCG:  Solving for e, Initial residual = 0.0864819, Final residual = 0.00429786, No Iterations 4
DICPCG:  Solving for e, Initial residual = 0.00428182, Final residual = 0.000276543, No Iterations 4
DICPCG:  Solving for e, Initial residual = 0.000596681, Final residual = 9.07616e-07, No Iterations 8
ExecutionTime = 2.66991 s  ClockTime = 2 s

deltaT = 0.5
Time = 62.331886s

DICPCG:  Solving for e, Initial residual = 0.0861699, Final residual = 0.00425484, No Iterations 4
DICPCG:  Solving for e, Initial residual = 0.00423938, Final residual = 0.000272517, No Iterations 4
DICPCG:  Solving for e, Initial residual = 0.000589481, Final residual = 8.83818e-07, No Iterations 8
ExecutionTime = 2.68753 s  ClockTime = 2 s

deltaT = 0.5
Time = 62.831886s

DICPCG:  Solving for e, Initial residual = 0.0858605, Final residual = 0.00421246, No Iterations 4
DICPCG:  Solving for e, Initial residual = 0.00419755, Final residual = 0.000268565, No Iterations 4
DICPCG:  Solving for e, Initial residual = 0.000582396, Final residual = 8.60736e-07, No Iterations 8
ExecutionTime = 2.70543 s  ClockTime = 3 s

deltaT = 0.5
Time = 63.331886s

DICPCG:  Solving for e, Initial residual = 0.0855539, Final residual = 0.00417072, No Iterations 4
DICPCG:  Solving for e, Initial residual = 0.00415641, Final residual = 0.000264685, No Iterations 4
DICPCG:  Solving for e, Initial residual = 0.000575426, Final residual = 8.3828e-07, No Iterations 8
ExecutionTime = 2.7231 s  ClockTime = 3 s

deltaT = 0.5
Time = 63.831886s

DICPCG:  Solving for e, Initial residual = 0.0852499, Final residual = 0.00412962, No Iterations 4
DICPCG:  Solving for e, Initial residual = 0.00411579, Final residual = 0.000260871, No Iterations 4
DICPCG:  Solving for e, Initial residual = 0.000568575, Final residual = 8.1652e-07, No Iterations 8
ExecutionTime = 2.74098 s  ClockTime = 3 s

deltaT = 0.5
Time = 64.331886s

DICPCG:  Solving for e, Initial residual = 0.0849486, Final residual = 0.00408914, No Iterations 4
DICPCG:  Solving for e, Initial residual = 0.00407579, Final residual = 0.000257106, No Iterations 4
DICPCG:  Solving for e, Initial residual = 0.000561837, Final residual = 7.95356e-07, No Iterations 8
ExecutionTime = 2.75856 s  ClockTime = 3 s

deltaT = 0.5
Time = 64.831886s

DICPCG:  Solving for e, Initial residual = 0.0846499, Final residual = 0.00404927, No Iterations 4
DICPCG:  Solving for e, Initial residual = 0.00403636, Final residual = 0.000253423, No Iterations 4
DICPCG:  Solving for e, Initial residual = 0.000555224, Final residual = 7.74816e-07, No Iterations 8
ExecutionTime = 2.79364 s  ClockTime = 3 s

deltaT = 0.5
Time = 65.331886s

DICPCG:  Solving for e, Initial residual = 0.0843537, Final residual = 0.00401003, No Iterations 4
DICPCG:  Solving for e, Initial residual = 0.00399755, Final residual = 0.000249798, No Iterations 4
DICPCG:  Solving for e, Initial residual = 0.000548725, Final residual = 7.54853e-07, No Iterations 8
ExecutionTime = 2.81144 s  ClockTime = 3 s

deltaT = 0.5
Time = 65.831886s

DICPCG:  Solving for e, Initial residual = 0.08406, Final residual = 0.0039714, No Iterations 4
DICPCG:  Solving for e, Initial residual = 0.00395928, Final residual = 0.000246227, No Iterations 4
DICPCG:  Solving for e, Initial residual = 0.000542346, Final residual = 7.35557e-07, No Iterations 8
ExecutionTime = 2.82924 s  ClockTime = 3 s

deltaT = 0.5
Time = 66.331886s

DICPCG:  Solving for e, Initial residual = 0.0837688, Final residual = 0.00393332, No Iterations 4
DICPCG:  Solving for e, Initial residual = 0.00392167, Final residual = 0.000242694, No Iterations 4
DICPCG:  Solving for e, Initial residual = 0.000536077, Final residual = 7.16827e-07, No Iterations 8
ExecutionTime = 2.84676 s  ClockTime = 3 s

deltaT = 0.5
Time = 66.831886s

DICPCG:  Solving for e, Initial residual = 0.08348, Final residual = 0.00389581, No Iterations 4
DICPCG:  Solving for e, Initial residual = 0.00388453, Final residual = 0.000239219, No Iterations 4
DICPCG:  Solving for e, Initial residual = 0.000529902, Final residual = 6.98638e-07, No Iterations 8
ExecutionTime = 2.86456 s  ClockTime = 3 s

deltaT = 0.5
Time = 67.331886s

DICPCG:  Solving for e, Initial residual = 0.0831936, Final residual = 0.00385889, No Iterations 4
DICPCG:  Solving for e, Initial residual = 0.00384807, Final residual = 0.000235822, No Iterations 4
DICPCG:  Solving for e, Initial residual = 0.000523838, Final residual = 6.80983e-07, No Iterations 8
ExecutionTime = 2.88213 s  ClockTime = 3 s

deltaT = 0.5
Time = 67.831886s

DICPCG:  Solving for e, Initial residual = 0.0829097, Final residual = 0.0038225, No Iterations 4
DICPCG:  Solving for e, Initial residual = 0.00381197, Final residual = 0.000232489, No Iterations 4
DICPCG:  Solving for e, Initial residual = 0.000517882, Final residual = 6.63856e-07, No Iterations 8
ExecutionTime = 2.89979 s  ClockTime = 3 s

deltaT = 0.5
Time = 68.331886s

DICPCG:  Solving for e, Initial residual = 0.0826282, Final residual = 0.0037866, No Iterations 4
DICPCG:  Solving for e, Initial residual = 0.00377609, Final residual = 0.000229199, No Iterations 4
DICPCG:  Solving for e, Initial residual = 0.00051203, Final residual = 6.47294e-07, No Iterations 8
ExecutionTime = 2.91718 s  ClockTime = 3 s

deltaT = 0.5
Time = 68.831886s

DICPCG:  Solving for e, Initial residual = 0.0823491, Final residual = 0.0037512, No Iterations 4
DICPCG:  Solving for e, Initial residual = 0.00374075, Final residual = 0.000225933, No Iterations 4
DICPCG:  Solving for e, Initial residual = 0.000506274, Final residual = 6.31213e-07, No Iterations 8
ExecutionTime = 2.93488 s  ClockTime = 3 s

deltaT = 0.5
Time = 69.331886s

DICPCG:  Solving for e, Initial residual = 0.0820723, Final residual = 0.00371628, No Iterations 4
DICPCG:  Solving for e, Initial residual = 0.00370609, Final residual = 0.000222744, No Iterations 4
DICPCG:  Solving for e, Initial residual = 0.000500576, Final residual = 6.15529e-07, No Iterations 8
ExecutionTime = 2.95245 s  ClockTime = 3 s

deltaT = 0.5
Time = 69.831886s

DICPCG:  Solving for e, Initial residual = 0.0817978, Final residual = 0.00368184, No Iterations 4
DICPCG:  Solving for e, Initial residual = 0.00367177, Final residual = 0.000219591, No Iterations 4
DICPCG:  Solving for e, Initial residual = 0.000494989, Final residual = 6.00396e-07, No Iterations 8
ExecutionTime = 2.98767 s  ClockTime = 3 s

deltaT = 0.5
Time = 70.331886s

DICPCG:  Solving for e, Initial residual = 0.0815258, Final residual = 0.00364789, No Iterations 4
DICPCG:  Solving for e, Initial residual = 0.00363804, Final residual = 0.00021653, No Iterations 4
DICPCG:  Solving for e, Initial residual = 0.000489494, Final residual = 5.85637e-07, No Iterations 8
ExecutionTime = 3.00552 s  ClockTime = 3 s

deltaT = 0.5
Time = 70.831886s

DICPCG:  Solving for e, Initial residual = 0.0812561, Final residual = 0.00361438, No Iterations 4
DICPCG:  Solving for e, Initial residual = 0.00360443, Final residual = 0.000213515, No Iterations 4
DICPCG:  Solving for e, Initial residual = 0.000484068, Final residual = 5.71307e-07, No Iterations 8
ExecutionTime = 3.02311 s  ClockTime = 3 s

deltaT = 0.5
Time = 71.331886s

DICPCG:  Solving for e, Initial residual = 0.0809887, Final residual = 0.00358132, No Iterations 4
DICPCG:  Solving for e, Initial residual = 0.00357121, Final residual = 0.000210564, No Iterations 4
DICPCG:  Solving for e, Initial residual = 0.000478809, Final residual = 5.57513e-07, No Iterations 8
ExecutionTime = 3.04052 s  ClockTime = 3 s

deltaT = 0.5
Time = 71.831886s

DICPCG:  Solving for e, Initial residual = 0.0807238, Final residual = 0.00354867, No Iterations 4
DICPCG:  Solving for e, Initial residual = 0.00353888, Final residual = 0.000207674, No Iterations 4
DICPCG:  Solving for e, Initial residual = 0.000473551, Final residual = 5.4395e-07, No Iterations 8
ExecutionTime = 3.05816 s  ClockTime = 3 s

deltaT = 0.5
Time = 72.331886s

DICPCG:  Solving for e, Initial residual = 0.0804612, Final residual = 0.00351647, No Iterations 4
DICPCG:  Solving for e, Initial residual = 0.00350697, Final residual = 0.000204803, No Iterations 4
DICPCG:  Solving for e, Initial residual = 0.00046837, Final residual = 5.30878e-07, No Iterations 8
ExecutionTime = 3.07563 s  ClockTime = 3 s

deltaT = 0.5
Time = 72.831886s

DICPCG:  Solving for e, Initial residual = 0.080201, Final residual = 0.0034847, No Iterations 4
DICPCG:  Solving for e, Initial residual = 0.0034753, Final residual = 0.000201967, No Iterations 4
DICPCG:  Solving for e, Initial residual = 0.000463336, Final residual = 5.18269e-07, No Iterations 8
ExecutionTime = 3.09316 s  ClockTime = 3 s

deltaT = 0.5
Time = 73.331886s

DICPCG:  Solving for e, Initial residual = 0.0799431, Final residual = 0.00345336, No Iterations 4
DICPCG:  Solving for e, Initial residual = 0.00344361, Final residual = 0.000199179, No Iterations 4
DICPCG:  Solving for e, Initial residual = 0.000458307, Final residual = 5.05857e-07, No Iterations 8
ExecutionTime = 3.11043 s  ClockTime = 3 s

deltaT = 0.5
Time = 73.831886s

DICPCG:  Solving for e, Initial residual = 0.0796876, Final residual = 0.00342244, No Iterations 4
DICPCG:  Solving for e, Initial residual = 0.00341266, Final residual = 0.000196471, No Iterations 4
DICPCG:  Solving for e, Initial residual = 0.000453401, Final residual = 4.93787e-07, No Iterations 8
ExecutionTime = 3.12842 s  ClockTime = 3 s

deltaT = 0.5
Time = 74.331886s

DICPCG:  Solving for e, Initial residual = 0.0794345, Final residual = 0.00339192, No Iterations 4
DICPCG:  Solving for e, Initial residual = 0.00338223, Final residual = 0.000193792, No Iterations 4
DICPCG:  Solving for e, Initial residual = 0.000448444, Final residual = 4.82159e-07, No Iterations 8
ExecutionTime = 3.14668 s  ClockTime = 3 s

deltaT = 0.5
Time = 74.831886s

DICPCG:  Solving for e, Initial residual = 0.0791838, Final residual = 0.00336188, No Iterations 4
DICPCG:  Solving for e, Initial residual = 0.00335252, Final residual = 0.0001912, No Iterations 4
DICPCG:  Solving for e, Initial residual = 0.000443664, Final residual = 4.71353e-07, No Iterations 8
ExecutionTime = 3.18265 s  ClockTime = 3 s

deltaT = 0.5
Time = 75.331886s

DICPCG:  Solving for e, Initial residual = 0.0789355, Final residual = 0.0033326, No Iterations 4
DICPCG:  Solving for e, Initial residual = 0.00332393, Final residual = 0.000188751, No Iterations 4
DICPCG:  Solving for e, Initial residual = 0.000439027, Final residual = 4.61003e-07, No Iterations 8
ExecutionTime = 3.20085 s  ClockTime = 3 s

deltaT = 0.5
Time = 75.831886s

DICPCG:  Solving for e, Initial residual = 0.0786896, Final residual = 0.00783981, No Iterations 3
DICPCG:  Solving for e, Initial residual = 0.00769615, Final residual = 0.000407012, No Iterations 4
DICPCG:  Solving for e, Initial residual = 0.000895706, Final residual = 9.45477e-07, No Iterations 8
ExecutionTime = 3.21876 s  ClockTime = 3 s

deltaT = 0.5
Time = 76.331886s

DICPCG:  Solving for e, Initial residual = 0.078446, Final residual = 0.00777619, No Iterations 3
DICPCG:  Solving for e, Initial residual = 0.00763332, Final residual = 0.000401813, No Iterations 4
DICPCG:  Solving for e, Initial residual = 0.000885792, Final residual = 9.26769e-07, No Iterations 8
ExecutionTime = 3.23651 s  ClockTime = 3 s

deltaT = 0.5
Time = 76.831886s

DICPCG:  Solving for e, Initial residual = 0.078205, Final residual = 0.00771675, No Iterations 3
DICPCG:  Solving for e, Initial residual = 0.00757579, Final residual = 0.000397455, No Iterations 4
DICPCG:  Solving for e, Initial residual = 0.000877819, Final residual = 9.09172e-07, No Iterations 8
ExecutionTime = 3.25428 s  ClockTime = 3 s

deltaT = 0.5
Time = 77.331886s

DICPCG:  Solving for e, Initial residual = 0.0779666, Final residual = 0.00765799, No Iterations 3
DICPCG:  Solving for e, Initial residual = 0.00751923, Final residual = 0.000393202, No Iterations 4
DICPCG:  Solving for e, Initial residual = 0.000870029, Final residual = 8.92134e-07, No Iterations 8
ExecutionTime = 3.27191 s  ClockTime = 3 s

deltaT = 0.5
Time = 77.831886s

DICPCG:  Solving for e, Initial residual = 0.0777311, Final residual = 0.00760038, No Iterations 3
DICPCG:  Solving for e, Initial residual = 0.00746337, Final residual = 0.000389117, No Iterations 4
DICPCG:  Solving for e, Initial residual = 0.000862569, Final residual = 8.75732e-07, No Iterations 8
ExecutionTime = 3.28974 s  ClockTime = 3 s

deltaT = 0.5
Time = 78.331886s

DICPCG:  Solving for e, Initial residual = 0.0774983, Final residual = 0.00754376, No Iterations 3
DICPCG:  Solving for e, Initial residual = 0.0074081, Final residual = 0.000385103, No Iterations 4
DICPCG:  Solving for e, Initial residual = 0.000855306, Final residual = 8.59686e-07, No Iterations 8
ExecutionTime = 3.30741 s  ClockTime = 3 s

deltaT = 0.5
Time = 78.831886s

DICPCG:  Solving for e, Initial residual = 0.0772686, Final residual = 0.00748787, No Iterations 3
DICPCG:  Solving for e, Initial residual = 0.00735328, Final residual = 0.00038106, No Iterations 4
DICPCG:  Solving for e, Initial residual = 0.000848107, Final residual = 8.43609e-07, No Iterations 8
ExecutionTime = 3.32538 s  ClockTime = 3 s

deltaT = 0.5
Time = 79.331886s

DICPCG:  Solving for e, Initial residual = 0.0770421, Final residual = 0.00743294, No Iterations 3
DICPCG:  Solving for e, Initial residual = 0.00730075, Final residual = 0.000377288, No Iterations 4
DICPCG:  Solving for e, Initial residual = 0.000841165, Final residual = 8.28037e-07, No Iterations 8
ExecutionTime = 3.34308 s  ClockTime = 3 s

deltaT = 0.5
Time = 79.831886s

DICPCG:  Solving for e, Initial residual = 0.0768193, Final residual = 0.00737911, No Iterations 3
DICPCG:  Solving for e, Initial residual = 0.00724957, Final residual = 0.000373562, No Iterations 4
DICPCG:  Solving for e, Initial residual = 0.00083433, Final residual = 8.13171e-07, No Iterations 8
ExecutionTime = 3.37824 s  ClockTime = 3 s

deltaT = 0.5
Time = 80.331886s

DICPCG:  Solving for e, Initial residual = 0.0766002, Final residual = 0.00732665, No Iterations 3
DICPCG:  Solving for e, Initial residual = 0.00719928, Final residual = 0.000369818, No Iterations 4
DICPCG:  Solving for e, Initial residual = 0.00082751, Final residual = 7.99017e-07, No Iterations 8
ExecutionTime = 3.39586 s  ClockTime = 3 s

deltaT = 0.5
Time = 80.831886s

DICPCG:  Solving for e, Initial residual = 0.0763851, Final residual = 0.00727577, No Iterations 3
DICPCG:  Solving for e, Initial residual = 0.00714882, Final residual = 0.000366065, No Iterations 4
DICPCG:  Solving for e, Initial residual = 0.000820437, Final residual = 7.85247e-07, No Iterations 8
ExecutionTime = 3.41382 s  ClockTime = 3 s

deltaT = 0.5
Time = 81.331886s

DICPCG:  Solving for e, Initial residual = 0.0761742, Final residual = 0.00722695, No Iterations 3
DICPCG:  Solving for e, Initial residual = 0.00710014, Final residual = 0.000362341, No Iterations 4
DICPCG:  Solving for e, Initial residual = 0.000813579, Final residual = 7.71794e-07, No Iterations 8
ExecutionTime = 3.43601 s  ClockTime = 3 s

deltaT = 0.5
Time = 81.831886s

DICPCG:  Solving for e, Initial residual = 0.0759672, Final residual = 0.00718006, No Iterations 3
DICPCG:  Solving for e, Initial residual = 0.00705351, Final residual = 0.000358718, No Iterations 4
DICPCG:  Solving for e, Initial residual = 0.000807018, Final residual = 7.59119e-07, No Iterations 8
ExecutionTime = 3.46317 s  ClockTime = 3 s

deltaT = 0.5
Time = 82.331886s

DICPCG:  Solving for e, Initial residual = 0.0757642, Final residual = 0.00713473, No Iterations 3
DICPCG:  Solving for e, Initial residual = 0.0070077, Final residual = 0.000355302, No Iterations 4
DICPCG:  Solving for e, Initial residual = 0.000800928, Final residual = 7.4708e-07, No Iterations 8
ExecutionTime = 3.48998 s  ClockTime = 3 s

deltaT = 0.5
Time = 82.831886s

DICPCG:  Solving for e, Initial residual = 0.075565, Final residual = 0.00709122, No Iterations 3
DICPCG:  Solving for e, Initial residual = 0.0069648, Final residual = 0.000352115, No Iterations 4
DICPCG:  Solving for e, Initial residual = 0.000795161, Final residual = 7.35569e-07, No Iterations 8
ExecutionTime = 3.51712 s  ClockTime = 3 s

deltaT = 0.5
Time = 83.331886s

DICPCG:  Solving for e, Initial residual = 0.0753692, Final residual = 0.00704921, No Iterations 3
DICPCG:  Solving for e, Initial residual = 0.00692372, Final residual = 0.000349023, No Iterations 4
DICPCG:  Solving for e, Initial residual = 0.000789608, Final residual = 7.24522e-07, No Iterations 8
ExecutionTime = 3.54414 s  ClockTime = 3 s

deltaT = 0.5
Time = 83.831886s

DICPCG:  Solving for e, Initial residual = 0.0751767, Final residual = 0.0070079, No Iterations 3
DICPCG:  Solving for e, Initial residual = 0.00688332, Final residual = 0.000345985, No Iterations 4
DICPCG:  Solving for e, Initial residual = 0.000784156, Final residual = 7.13716e-07, No Iterations 8
ExecutionTime = 3.57042 s  ClockTime = 3 s

deltaT = 0.5
Time = 84.331886s

DICPCG:  Solving for e, Initial residual = 0.0749873, Final residual = 0.00696721, No Iterations 3
DICPCG:  Solving for e, Initial residual = 0.00684353, Final residual = 0.000343, No Iterations 4
DICPCG:  Solving for e, Initial residual = 0.000778788, Final residual = 7.03137e-07, No Iterations 8
ExecutionTime = 3.59564 s  ClockTime = 3 s

deltaT = 0.5
Time = 84.831886s

DICPCG:  Solving for e, Initial residual = 0.0748009, Final residual = 0.00692713, No Iterations 3
DICPCG:  Solving for e, Initial residual = 0.00680434, Final residual = 0.000340066, No Iterations 4
DICPCG:  Solving for e, Initial residual = 0.000773505, Final residual = 6.92777e-07, No Iterations 8
ExecutionTime = 3.6451 s  ClockTime = 3 s

deltaT = 0.5
Time = 85.331886s

DICPCG:  Solving for e, Initial residual = 0.0746172, Final residual = 0.00688763, No Iterations 3
DICPCG:  Solving for e, Initial residual = 0.00676571, Final residual = 0.00033718, No Iterations 4
DICPCG:  Solving for e, Initial residual = 0.000768302, Final residual = 6.82633e-07, No Iterations 8
ExecutionTime = 3.66409 s  ClockTime = 3 s

deltaT = 0.5
Time = 85.831886s

DICPCG:  Solving for e, Initial residual = 0.0744362, Final residual = 0.00684869, No Iterations 3
DICPCG:  Solving for e, Initial residual = 0.00672763, Final residual = 0.000334341, No Iterations 4
DICPCG:  Solving for e, Initial residual = 0.000763173, Final residual = 6.72705e-07, No Iterations 8
ExecutionTime = 3.68295 s  ClockTime = 3 s

deltaT = 0.5
Time = 86.331886s

DICPCG:  Solving for e, Initial residual = 0.0742578, Final residual = 0.0068103, No Iterations 3
DICPCG:  Solving for e, Initial residual = 0.00669008, Final residual = 0.000331548, No Iterations 4
DICPCG:  Solving for e, Initial residual = 0.000758122, Final residual = 6.62987e-07, No Iterations 8
ExecutionTime = 3.70152 s  ClockTime = 3 s

deltaT = 0.5
Time = 86.831886s

DICPCG:  Solving for e, Initial residual = 0.0740818, Final residual = 0.00677243, No Iterations 3
DICPCG:  Solving for e, Initial residual = 0.00665304, Final residual = 0.000328799, No Iterations 4
DICPCG:  Solving for e, Initial residual = 0.000753143, Final residual = 6.53473e-07, No Iterations 8
ExecutionTime = 3.72035 s  ClockTime = 4 s

deltaT = 0.5
Time = 87.331886s

DICPCG:  Solving for e, Initial residual = 0.0739081, Final residual = 0.00673507, No Iterations 3
DICPCG:  Solving for e, Initial residual = 0.0066165, Final residual = 0.000326093, No Iterations 4
DICPCG:  Solving for e, Initial residual = 0.000748234, Final residual = 6.44154e-07, No Iterations 8
ExecutionTime = 3.73889 s  ClockTime = 4 s

deltaT = 0.5
Time = 87.831886s

DICPCG:  Solving for e, Initial residual = 0.0737367, Final residual = 0.00669821, No Iterations 3
DICPCG:  Solving for e, Initial residual = 0.00658044, Final residual = 0.000323428, No Iterations 4
DICPCG:  Solving for e, Initial residual = 0.000743392, Final residual = 6.35021e-07, No Iterations 8
ExecutionTime = 3.75769 s  ClockTime = 4 s

deltaT = 0.5
Time = 88.331886s

DICPCG:  Solving for e, Initial residual = 0.0735674, Final residual = 0.00666183, No Iterations 3
DICPCG:  Solving for e, Initial residual = 0.00654484, Final residual = 0.000320804, No Iterations 4
DICPCG:  Solving for e, Initial residual = 0.000738618, Final residual = 6.26072e-07, No Iterations 8
ExecutionTime = 3.77621 s  ClockTime = 4 s

deltaT = 0.5
Time = 88.831886s

DICPCG:  Solving for e, Initial residual = 0.0734002, Final residual = 0.00662592, No Iterations 3
DICPCG:  Solving for e, Initial residual = 0.00650971, Final residual = 0.000318218, No Iterations 4
DICPCG:  Solving for e, Initial residual = 0.000733908, Final residual = 6.17302e-07, No Iterations 8
ExecutionTime = 3.7951 s  ClockTime = 4 s

deltaT = 0.5
Time = 89.331886s

DICPCG:  Solving for e, Initial residual = 0.0732349, Final residual = 0.00659046, No Iterations 3
DICPCG:  Solving for e, Initial residual = 0.00647503, Final residual = 0.000315672, No Iterations 4
DICPCG:  Solving for e, Initial residual = 0.000729261, Final residual = 6.08707e-07, No Iterations 8
ExecutionTime = 3.81363 s  ClockTime = 4 s

deltaT = 0.5
Time = 89.831886s

DICPCG:  Solving for e, Initial residual = 0.0730716, Final residual = 0.00655544, No Iterations 3
DICPCG:  Solving for e, Initial residual = 0.00644078, Final residual = 0.000313162, No Iterations 4
DICPCG:  Solving for e, Initial residual = 0.000724677, Final residual = 6.00284e-07, No Iterations 8
ExecutionTime = 3.85057 s  ClockTime = 4 s

deltaT = 0.5
Time = 90.331886s

DICPCG:  Solving for e, Initial residual = 0.0729101, Final residual = 0.00652086, No Iterations 3
DICPCG:  Solving for e, Initial residual = 0.00640695, Final residual = 0.000310689, No Iterations 4
DICPCG:  Solving for e, Initial residual = 0.000720152, Final residual = 5.92027e-07, No Iterations 8
ExecutionTime = 3.86919 s  ClockTime = 4 s

deltaT = 0.5
Time = 90.831886s

DICPCG:  Solving for e, Initial residual = 0.0727505, Final residual = 0.0064867, No Iterations 3
DICPCG:  Solving for e, Initial residual = 0.00637354, Final residual = 0.000308251, No Iterations 4
DICPCG:  Solving for e, Initial residual = 0.000715687, Final residual = 5.83932e-07, No Iterations 8
ExecutionTime = 3.88804 s  ClockTime = 4 s

deltaT = 0.5
Time = 91.331886s

DICPCG:  Solving for e, Initial residual = 0.0725926, Final residual = 0.00645296, No Iterations 3
DICPCG:  Solving for e, Initial residual = 0.00634054, Final residual = 0.000305848, No Iterations 4
DICPCG:  Solving for e, Initial residual = 0.000711282, Final residual = 5.75998e-07, No Iterations 8
ExecutionTime = 3.90694 s  ClockTime = 4 s

deltaT = 0.5
Time = 91.831886s

DICPCG:  Solving for e, Initial residual = 0.0724364, Final residual = 0.00641963, No Iterations 3
DICPCG:  Solving for e, Initial residual = 0.00630794, Final residual = 0.00030348, No Iterations 4
DICPCG:  Solving for e, Initial residual = 0.000706931, Final residual = 5.68225e-07, No Iterations 8
ExecutionTime = 3.9258 s  ClockTime = 4 s

deltaT = 0.5
Time = 92.331886s

DICPCG:  Solving for e, Initial residual = 0.0722818, Final residual = 0.00638671, No Iterations 3
DICPCG:  Solving for e, Initial residual = 0.00627572, Final residual = 0.000301145, No Iterations 4
DICPCG:  Solving for e, Initial residual = 0.000702637, Final residual = 5.60603e-07, No Iterations 8
ExecutionTime = 3.94451 s  ClockTime = 4 s

deltaT = 0.5
Time = 92.831886s

DICPCG:  Solving for e, Initial residual = 0.0721289, Final residual = 0.00635417, No Iterations 3
DICPCG:  Solving for e, Initial residual = 0.00624388, Final residual = 0.000298844, No Iterations 4
DICPCG:  Solving for e, Initial residual = 0.000698394, Final residual = 5.53128e-07, No Iterations 8
ExecutionTime = 3.96373 s  ClockTime = 4 s

deltaT = 0.5
Time = 93.331886s

DICPCG:  Solving for e, Initial residual = 0.0719775, Final residual = 0.00632202, No Iterations 3
DICPCG:  Solving for e, Initial residual = 0.00621241, Final residual = 0.000296574, No Iterations 4
DICPCG:  Solving for e, Initial residual = 0.000694208, Final residual = 5.45802e-07, No Iterations 8
ExecutionTime = 3.9827 s  ClockTime = 4 s

deltaT = 0.5
Time = 93.831886s

[...]

deltaT = 0.5
Time = 573.831886s

DICPCG:  Solving for e, Initial residual = 0.144652, Final residual = 0.00970771, No Iterations 5
DICPCG:  Solving for e, Initial residual = 0.010037, Final residual = 0.000686319, No Iterations 5
DICPCG:  Solving for e, Initial residual = 0.00171907, Final residual = 8.54673e-07, No Iterations 12
ExecutionTime = 22.2061 s  ClockTime = 22 s

deltaT = 0.5
Time = 574.331886s

DICPCG:  Solving for e, Initial residual = 0.144656, Final residual = 0.00970831, No Iterations 5
DICPCG:  Solving for e, Initial residual = 0.0100376, Final residual = 0.000686378, No Iterations 5
DICPCG:  Solving for e, Initial residual = 0.0017192, Final residual = 8.5483e-07, No Iterations 12
ExecutionTime = 22.2241 s  ClockTime = 22 s

deltaT = 0.5
Time = 574.831886s

DICPCG:  Solving for e, Initial residual = 0.144659, Final residual = 0.00970889, No Iterations 5
DICPCG:  Solving for e, Initial residual = 0.0100382, Final residual = 0.000686437, No Iterations 5
DICPCG:  Solving for e, Initial residual = 0.00171932, Final residual = 8.54984e-07, No Iterations 12
ExecutionTime = 22.2594 s  ClockTime = 22 s

deltaT = 0.5
Time = 575.331886s

DICPCG:  Solving for e, Initial residual = 0.144662, Final residual = 0.00970946, No Iterations 5
DICPCG:  Solving for e, Initial residual = 0.0100388, Final residual = 0.000686494, No Iterations 5
DICPCG:  Solving for e, Initial residual = 0.00171944, Final residual = 8.55136e-07, No Iterations 12
ExecutionTime = 22.2775 s  ClockTime = 22 s

deltaT = 0.5
Time = 575.831886s

DICPCG:  Solving for e, Initial residual = 0.144665, Final residual = 0.00971003, No Iterations 5
DICPCG:  Solving for e, Initial residual = 0.0100394, Final residual = 0.00068655, No Iterations 5
DICPCG:  Solving for e, Initial residual = 0.00171956, Final residual = 8.55284e-07, No Iterations 12
ExecutionTime = 22.2957 s  ClockTime = 22 s

deltaT = 0.5
Time = 576.331886s

DICPCG:  Solving for e, Initial residual = 0.144668, Final residual = 0.00971058, No Iterations 5
DICPCG:  Solving for e, Initial residual = 0.01004, Final residual = 0.000686606, No Iterations 5
DICPCG:  Solving for e, Initial residual = 0.00171968, Final residual = 8.5543e-07, No Iterations 12
ExecutionTime = 22.3137 s  ClockTime = 22 s

deltaT = 0.5
Time = 576.831886s

DICPCG:  Solving for e, Initial residual = 0.144671, Final residual = 0.00971112, No Iterations 5
DICPCG:  Solving for e, Initial residual = 0.0100405, Final residual = 0.00068666, No Iterations 5
DICPCG:  Solving for e, Initial residual = 0.0017198, Final residual = 8.55574e-07, No Iterations 12
ExecutionTime = 22.332 s  ClockTime = 22 s

deltaT = 0.5
Time = 577.331886s

DICPCG:  Solving for e, Initial residual = 0.144674, Final residual = 0.00971166, No Iterations 5
DICPCG:  Solving for e, Initial residual = 0.010041, Final residual = 0.000686713, No Iterations 5
DICPCG:  Solving for e, Initial residual = 0.00171991, Final residual = 8.55715e-07, No Iterations 12
ExecutionTime = 22.3499 s  ClockTime = 22 s

deltaT = 0.5
Time = 577.831886s

DICPCG:  Solving for e, Initial residual = 0.144677, Final residual = 0.00971218, No Iterations 5
DICPCG:  Solving for e, Initial residual = 0.0100416, Final residual = 0.000686766, No Iterations 5
DICPCG:  Solving for e, Initial residual = 0.00172002, Final residual = 8.55853e-07, No Iterations 12
ExecutionTime = 22.3685 s  ClockTime = 22 s

deltaT = 0.5
Time = 578.331886s

DICPCG:  Solving for e, Initial residual = 0.14468, Final residual = 0.00971269, No Iterations 5
DICPCG:  Solving for e, Initial residual = 0.0100421, Final residual = 0.000686817, No Iterations 5
DICPCG:  Solving for e, Initial residual = 0.00172013, Final residual = 8.55989e-07, No Iterations 12
ExecutionTime = 22.3868 s  ClockTime = 22 s

deltaT = 0.5
Time = 578.831886s

DICPCG:  Solving for e, Initial residual = 0.144682, Final residual = 0.0097132, No Iterations 5
DICPCG:  Solving for e, Initial residual = 0.0100426, Final residual = 0.000686868, No Iterations 5
DICPCG:  Solving for e, Initial residual = 0.00172024, Final residual = 8.56122e-07, No Iterations 12
ExecutionTime = 22.405 s  ClockTime = 22 s

deltaT = 0.5
Time = 579.331886s

DICPCG:  Solving for e, Initial residual = 0.144685, Final residual = 0.00971369, No Iterations 5
DICPCG:  Solving for e, Initial residual = 0.0100431, Final residual = 0.000686917, No Iterations 5
DICPCG:  Solving for e, Initial residual = 0.00172035, Final residual = 8.56253e-07, No Iterations 12
ExecutionTime = 22.423 s  ClockTime = 22 s

deltaT = 0.5
Time = 579.831886s

DICPCG:  Solving for e, Initial residual = 0.144688, Final residual = 0.00971418, No Iterations 5
DICPCG:  Solving for e, Initial residual = 0.0100436, Final residual = 0.000686966, No Iterations 5
DICPCG:  Solving for e, Initial residual = 0.00172045, Final residual = 8.56381e-07, No Iterations 12
ExecutionTime = 22.4584 s  ClockTime = 22 s

deltaT = 0.5
Time = 580.331886s

DICPCG:  Solving for e, Initial residual = 0.14469, Final residual = 0.00971466, No Iterations 5
DICPCG:  Solving for e, Initial residual = 0.0100441, Final residual = 0.000687014, No Iterations 5
DICPCG:  Solving for e, Initial residual = 0.00172055, Final residual = 8.56508e-07, No Iterations 12
ExecutionTime = 22.4766 s  ClockTime = 22 s

deltaT = 0.5
Time = 580.831886s

DICPCG:  Solving for e, Initial residual = 0.144693, Final residual = 0.00971512, No Iterations 5
DICPCG:  Solving for e, Initial residual = 0.0100446, Final residual = 0.000687061, No Iterations 5
DICPCG:  Solving for e, Initial residual = 0.00172065, Final residual = 8.56632e-07, No Iterations 12
ExecutionTime = 22.4949 s  ClockTime = 22 s

deltaT = 0.5
Time = 581.331886s

DICPCG:  Solving for e, Initial residual = 0.144695, Final residual = 0.00971559, No Iterations 5
DICPCG:  Solving for e, Initial residual = 0.010045, Final residual = 0.000687107, No Iterations 5
DICPCG:  Solving for e, Initial residual = 0.00172075, Final residual = 8.56753e-07, No Iterations 12
ExecutionTime = 22.513 s  ClockTime = 22 s

deltaT = 0.5
Time = 581.831886s

DICPCG:  Solving for e, Initial residual = 0.144698, Final residual = 0.00971604, No Iterations 5
DICPCG:  Solving for e, Initial residual = 0.0100455, Final residual = 0.000687152, No Iterations 5
DICPCG:  Solving for e, Initial residual = 0.00172085, Final residual = 8.56873e-07, No Iterations 12
ExecutionTime = 22.5312 s  ClockTime = 22 s

deltaT = 0.5
Time = 582.331886s

DICPCG:  Solving for e, Initial residual = 0.1447, Final residual = 0.00971648, No Iterations 5
DICPCG:  Solving for e, Initial residual = 0.0100459, Final residual = 0.000687196, No Iterations 5
DICPCG:  Solving for e, Initial residual = 0.00172094, Final residual = 8.5699e-07, No Iterations 12
ExecutionTime = 22.5493 s  ClockTime = 22 s

deltaT = 0.5
Time = 582.831886s

DICPCG:  Solving for e, Initial residual = 0.144702, Final residual = 0.00971692, No Iterations 5
DICPCG:  Solving for e, Initial residual = 0.0100464, Final residual = 0.00068724, No Iterations 5
DICPCG:  Solving for e, Initial residual = 0.00172103, Final residual = 8.57105e-07, No Iterations 12
ExecutionTime = 22.5677 s  ClockTime = 22 s

deltaT = 0.5
Time = 583.331886s

DICPCG:  Solving for e, Initial residual = 0.144705, Final residual = 0.00971734, No Iterations 5
DICPCG:  Solving for e, Initial residual = 0.0100468, Final residual = 0.000687283, No Iterations 5
DICPCG:  Solving for e, Initial residual = 0.00172113, Final residual = 8.57218e-07, No Iterations 12
ExecutionTime = 22.5859 s  ClockTime = 22 s

deltaT = 0.5
Time = 583.831886s

DICPCG:  Solving for e, Initial residual = 0.144707, Final residual = 0.00971776, No Iterations 5
DICPCG:  Solving for e, Initial residual = 0.0100472, Final residual = 0.000687325, No Iterations 5
DICPCG:  Solving for e, Initial residual = 0.00172122, Final residual = 8.5733e-07, No Iterations 12
ExecutionTime = 22.6042 s  ClockTime = 22 s

deltaT = 0.5
Time = 584.331886s

DICPCG:  Solving for e, Initial residual = 0.144709, Final residual = 0.00971818, No Iterations 5
DICPCG:  Solving for e, Initial residual = 0.0100477, Final residual = 0.000687366, No Iterations 5
DICPCG:  Solving for e, Initial residual = 0.0017213, Final residual = 8.57439e-07, No Iterations 12
ExecutionTime = 22.6222 s  ClockTime = 23 s

deltaT = 0.5
Time = 584.831886s

DICPCG:  Solving for e, Initial residual = 0.144712, Final residual = 0.00971858, No Iterations 5
DICPCG:  Solving for e, Initial residual = 0.0100481, Final residual = 0.000687407, No Iterations 5
DICPCG:  Solving for e, Initial residual = 0.00172139, Final residual = 8.57546e-07, No Iterations 12
ExecutionTime = 22.6632 s  ClockTime = 23 s

deltaT = 0.5
Time = 585.331886s

DICPCG:  Solving for e, Initial residual = 0.144714, Final residual = 0.00971898, No Iterations 5
DICPCG:  Solving for e, Initial residual = 0.0100485, Final residual = 0.000687447, No Iterations 5
DICPCG:  Solving for e, Initial residual = 0.00172148, Final residual = 8.57651e-07, No Iterations 12
ExecutionTime = 22.6818 s  ClockTime = 23 s

deltaT = 0.5
Time = 585.831886s

DICPCG:  Solving for e, Initial residual = 0.144716, Final residual = 0.00971937, No Iterations 5
DICPCG:  Solving for e, Initial residual = 0.0100489, Final residual = 0.000687486, No Iterations 5
DICPCG:  Solving for e, Initial residual = 0.00172156, Final residual = 8.57754e-07, No Iterations 12
ExecutionTime = 22.7001 s  ClockTime = 23 s

deltaT = 0.5
Time = 586.331886s

DICPCG:  Solving for e, Initial residual = 0.144718, Final residual = 0.00971975, No Iterations 5
DICPCG:  Solving for e, Initial residual = 0.0100493, Final residual = 0.000687524, No Iterations 5
DICPCG:  Solving for e, Initial residual = 0.00172164, Final residual = 8.57856e-07, No Iterations 12
ExecutionTime = 22.7181 s  ClockTime = 23 s

deltaT = 0.5
Time = 586.831886s

DICPCG:  Solving for e, Initial residual = 0.14472, Final residual = 0.00972013, No Iterations 5
DICPCG:  Solving for e, Initial residual = 0.0100496, Final residual = 0.000687562, No Iterations 5
DICPCG:  Solving for e, Initial residual = 0.00172172, Final residual = 8.57955e-07, No Iterations 12
ExecutionTime = 22.7363 s  ClockTime = 23 s

deltaT = 0.5
Time = 587.331886s

DICPCG:  Solving for e, Initial residual = 0.144722, Final residual = 0.0097205, No Iterations 5
DICPCG:  Solving for e, Initial residual = 0.01005, Final residual = 0.000687599, No Iterations 5
DICPCG:  Solving for e, Initial residual = 0.0017218, Final residual = 8.58053e-07, No Iterations 12
ExecutionTime = 22.7543 s  ClockTime = 23 s

deltaT = 0.5
Time = 587.831886s

DICPCG:  Solving for e, Initial residual = 0.144724, Final residual = 0.00972086, No Iterations 5
DICPCG:  Solving for e, Initial residual = 0.0100504, Final residual = 0.000687635, No Iterations 5
DICPCG:  Solving for e, Initial residual = 0.00172188, Final residual = 8.58149e-07, No Iterations 12
ExecutionTime = 22.7726 s  ClockTime = 23 s

deltaT = 0.5
Time = 588.331886s

DICPCG:  Solving for e, Initial residual = 0.144726, Final residual = 0.00972122, No Iterations 5
DICPCG:  Solving for e, Initial residual = 0.0100508, Final residual = 0.000687671, No Iterations 5
DICPCG:  Solving for e, Initial residual = 0.00172195, Final residual = 8.58243e-07, No Iterations 12
ExecutionTime = 22.7906 s  ClockTime = 23 s

deltaT = 0.5
Time = 588.831886s

DICPCG:  Solving for e, Initial residual = 0.144728, Final residual = 0.00972157, No Iterations 5
DICPCG:  Solving for e, Initial residual = 0.0100511, Final residual = 0.000687706, No Iterations 5
DICPCG:  Solving for e, Initial residual = 0.00172203, Final residual = 8.58336e-07, No Iterations 12
ExecutionTime = 22.8088 s  ClockTime = 23 s

deltaT = 0.5
Time = 589.331886s

DICPCG:  Solving for e, Initial residual = 0.14473, Final residual = 0.00972191, No Iterations 5
DICPCG:  Solving for e, Initial residual = 0.0100515, Final residual = 0.00068774, No Iterations 5
DICPCG:  Solving for e, Initial residual = 0.0017221, Final residual = 8.58427e-07, No Iterations 12
ExecutionTime = 22.8269 s  ClockTime = 23 s

deltaT = 0.5
Time = 589.831886s

DICPCG:  Solving for e, Initial residual = 0.144731, Final residual = 0.00972225, No Iterations 5
DICPCG:  Solving for e, Initial residual = 0.0100518, Final residual = 0.000687774, No Iterations 5
DICPCG:  Solving for e, Initial residual = 0.00172217, Final residual = 8.58516e-07, No Iterations 12
ExecutionTime = 22.8625 s  ClockTime = 23 s

deltaT = 0.5
Time = 590.331886s

DICPCG:  Solving for e, Initial residual = 0.144733, Final residual = 0.00972258, No Iterations 5
DICPCG:  Solving for e, Initial residual = 0.0100521, Final residual = 0.000687807, No Iterations 5
DICPCG:  Solving for e, Initial residual = 0.00172224, Final residual = 8.58604e-07, No Iterations 12
ExecutionTime = 22.881 s  ClockTime = 23 s

deltaT = 0.5
Time = 590.831886s

DICPCG:  Solving for e, Initial residual = 0.144735, Final residual = 0.0097229, No Iterations 5
DICPCG:  Solving for e, Initial residual = 0.0100525, Final residual = 0.00068784, No Iterations 5
DICPCG:  Solving for e, Initial residual = 0.00172231, Final residual = 8.5869e-07, No Iterations 12
ExecutionTime = 22.8993 s  ClockTime = 23 s

deltaT = 0.5
Time = 591.331886s

DICPCG:  Solving for e, Initial residual = 0.144737, Final residual = 0.00972322, No Iterations 5
DICPCG:  Solving for e, Initial residual = 0.0100528, Final residual = 0.000687872, No Iterations 5
DICPCG:  Solving for e, Initial residual = 0.00172238, Final residual = 8.58774e-07, No Iterations 12
ExecutionTime = 22.9166 s  ClockTime = 23 s

deltaT = 0.5
Time = 591.831886s

DICPCG:  Solving for e, Initial residual = 0.144738, Final residual = 0.00972354, No Iterations 5
DICPCG:  Solving for e, Initial residual = 0.0100531, Final residual = 0.000687903, No Iterations 5
DICPCG:  Solving for e, Initial residual = 0.00172245, Final residual = 8.58857e-07, No Iterations 12
ExecutionTime = 22.9335 s  ClockTime = 23 s

deltaT = 0.5
Time = 592.331886s

DICPCG:  Solving for e, Initial residual = 0.14474, Final residual = 0.00972384, No Iterations 5
DICPCG:  Solving for e, Initial residual = 0.0100534, Final residual = 0.000687934, No Iterations 5
DICPCG:  Solving for e, Initial residual = 0.00172252, Final residual = 8.58939e-07, No Iterations 12
ExecutionTime = 22.9502 s  ClockTime = 23 s

deltaT = 0.5
Time = 592.831886s

DICPCG:  Solving for e, Initial residual = 0.144742, Final residual = 0.00972415, No Iterations 5
DICPCG:  Solving for e, Initial residual = 0.0100537, Final residual = 0.000687964, No Iterations 5
DICPCG:  Solving for e, Initial residual = 0.00172258, Final residual = 8.59019e-07, No Iterations 12
ExecutionTime = 22.9671 s  ClockTime = 23 s

deltaT = 0.5
Time = 593.331886s

DICPCG:  Solving for e, Initial residual = 0.144743, Final residual = 0.00972444, No Iterations 5
DICPCG:  Solving for e, Initial residual = 0.010054, Final residual = 0.000687994, No Iterations 5
DICPCG:  Solving for e, Initial residual = 0.00172264, Final residual = 8.59097e-07, No Iterations 12
ExecutionTime = 22.9838 s  ClockTime = 23 s

deltaT = 0.5
Time = 593.831886s

DICPCG:  Solving for e, Initial residual = 0.144745, Final residual = 0.00972473, No Iterations 5
DICPCG:  Solving for e, Initial residual = 0.0100543, Final residual = 0.000688023, No Iterations 5
DICPCG:  Solving for e, Initial residual = 0.00172271, Final residual = 8.59174e-07, No Iterations 12
ExecutionTime = 23.0007 s  ClockTime = 23 s

deltaT = 0.5
Time = 594.331886s

DICPCG:  Solving for e, Initial residual = 0.144747, Final residual = 0.00972502, No Iterations 5
DICPCG:  Solving for e, Initial residual = 0.0100546, Final residual = 0.000688052, No Iterations 5
DICPCG:  Solving for e, Initial residual = 0.00172277, Final residual = 8.5925e-07, No Iterations 12
ExecutionTime = 23.0173 s  ClockTime = 23 s

deltaT = 0.5
Time = 594.831886s

DICPCG:  Solving for e, Initial residual = 0.144748, Final residual = 0.0097253, No Iterations 5
DICPCG:  Solving for e, Initial residual = 0.0100549, Final residual = 0.00068808, No Iterations 5
DICPCG:  Solving for e, Initial residual = 0.00172283, Final residual = 8.59324e-07, No Iterations 12
ExecutionTime = 23.0502 s  ClockTime = 23 s

deltaT = 0.5
Time = 595.331886s

DICPCG:  Solving for e, Initial residual = 0.14475, Final residual = 0.00972558, No Iterations 5
DICPCG:  Solving for e, Initial residual = 0.0100552, Final residual = 0.000688107, No Iterations 5
DICPCG:  Solving for e, Initial residual = 0.00172289, Final residual = 8.59397e-07, No Iterations 12
ExecutionTime = 23.067 s  ClockTime = 23 s

deltaT = 0.5
Time = 595.831886s

DICPCG:  Solving for e, Initial residual = 0.144751, Final residual = 0.00972585, No Iterations 5
DICPCG:  Solving for e, Initial residual = 0.0100555, Final residual = 0.000688134, No Iterations 5
DICPCG:  Solving for e, Initial residual = 0.00172294, Final residual = 8.59469e-07, No Iterations 12
ExecutionTime = 23.084 s  ClockTime = 23 s

deltaT = 0.5
Time = 596.331886s

DICPCG:  Solving for e, Initial residual = 0.144752, Final residual = 0.00972611, No Iterations 5
DICPCG:  Solving for e, Initial residual = 0.0100557, Final residual = 0.000688161, No Iterations 5
DICPCG:  Solving for e, Initial residual = 0.001723, Final residual = 8.5954e-07, No Iterations 12
ExecutionTime = 23.1006 s  ClockTime = 23 s

deltaT = 0.5
Time = 596.831886s

DICPCG:  Solving for e, Initial residual = 0.144754, Final residual = 0.00972637, No Iterations 5
DICPCG:  Solving for e, Initial residual = 0.010056, Final residual = 0.000688187, No Iterations 5
DICPCG:  Solving for e, Initial residual = 0.00172306, Final residual = 8.59609e-07, No Iterations 12
ExecutionTime = 23.1176 s  ClockTime = 23 s

deltaT = 0.5
Time = 597.331886s

DICPCG:  Solving for e, Initial residual = 0.144755, Final residual = 0.00972663, No Iterations 5
DICPCG:  Solving for e, Initial residual = 0.0100562, Final residual = 0.000688213, No Iterations 5
DICPCG:  Solving for e, Initial residual = 0.00172311, Final residual = 8.59677e-07, No Iterations 12
ExecutionTime = 23.1343 s  ClockTime = 23 s

deltaT = 0.5
Time = 597.831886s

DICPCG:  Solving for e, Initial residual = 0.144757, Final residual = 0.00972688, No Iterations 5
DICPCG:  Solving for e, Initial residual = 0.0100565, Final residual = 0.000688238, No Iterations 5
DICPCG:  Solving for e, Initial residual = 0.00172316, Final residual = 8.59743e-07, No Iterations 12
ExecutionTime = 23.1522 s  ClockTime = 23 s

deltaT = 0.5
Time = 598.331886s

DICPCG:  Solving for e, Initial residual = 0.144758, Final residual = 0.00972713, No Iterations 5
DICPCG:  Solving for e, Initial residual = 0.0100568, Final residual = 0.000688263, No Iterations 5
DICPCG:  Solving for e, Initial residual = 0.00172322, Final residual = 8.59809e-07, No Iterations 12
ExecutionTime = 23.1692 s  ClockTime = 23 s

deltaT = 0.5
Time = 598.831886s

DICPCG:  Solving for e, Initial residual = 0.144759, Final residual = 0.00972737, No Iterations 5
DICPCG:  Solving for e, Initial residual = 0.010057, Final residual = 0.000688287, No Iterations 5
DICPCG:  Solving for e, Initial residual = 0.00172327, Final residual = 8.59873e-07, No Iterations 12
ExecutionTime = 23.1861 s  ClockTime = 23 s

deltaT = 0.5
Time = 599.331886s

DICPCG:  Solving for e, Initial residual = 0.144761, Final residual = 0.00972761, No Iterations 5
DICPCG:  Solving for e, Initial residual = 0.0100572, Final residual = 0.000688311, No Iterations 5
DICPCG:  Solving for e, Initial residual = 0.00172332, Final residual = 8.59936e-07, No Iterations 12
ExecutionTime = 23.2028 s  ClockTime = 23 s

deltaT = 0.5
Time = 599.831886s

DICPCG:  Solving for e, Initial residual = 0.144762, Final residual = 0.00972784, No Iterations 5
DICPCG:  Solving for e, Initial residual = 0.0100575, Final residual = 0.000688334, No Iterations 5
DICPCG:  Solving for e, Initial residual = 0.00172337, Final residual = 8.59998e-07, No Iterations 12
ExecutionTime = 23.2357 s  ClockTime = 23 s

End

