/*---------------------------------------------------------------------------*\
  =========                 |
  \\      /  F ield         | OpenFOAM: The Open Source CFD Toolbox
   \\    /   O peration     | Website:  https://openfoam.org
    \\  /    A nd           | Version:  13
     \\/     M anipulation  |
\*---------------------------------------------------------------------------*/
Build  : 13-441953dfbb42
Exec   : foamRun
Date   : Apr 23 2026
Time   : 11:36:52
Host   : "ed-ThinkPad"
PID    : 14757
I/O    : uncollated
Case   : /home/ecastro/OpenFOAM/ecastro-13/run/basicHeatTreatment/cycle2c
nProcs : 1
sigFpe : Enabling floating point exception trapping (FOAM_SIGFPE).
fileModificationChecking : Monitoring run-time modified files using timeStampMaster (fileModificationSkew 10)
allowSystemOperations : Allowing user-supplied system call operations

// * * * * * * * * * * * * * * * * * * * * * * * * * * * * * * * * * * * * * //
Create time

Create mesh for time = 0

Selecting solver solid
Selecting thermodynamics package 
{
    type            heSolidThermo;
    mixture         pureMixture;
    transport       constIsoSolid;
    thermo          eConst;
    equationOfState rhoConst;
    specie          specie;
    energy          sensibleInternalEnergy;
}

Selecting default solid thermophysical transport model isotropic

PIMPLE: No convergence criteria found


PIMPLE: Operating solver in transient mode with 1 outer corrector
PIMPLE: Operating solver in PISO mode



Starting time loop

volFieldValue averageT read:
    number of cells = 5712
    volume = 1.56231e-05
    operation = average

volFieldValue minT read:
    number of cells = 5712
    volume = 1.56231e-05
    operation = min

volFieldValue maxT read:
    number of cells = 5712
    volume = 1.56231e-05
    operation = max

deltaT = 0.006
Time = 0.006s

DICPCG:  Solving for e, Initial residual = 1, Final residual = 0.00396718, No Iterations 1
DICPCG:  Solving for e, Initial residual = 0.0035019, Final residual = 5.46209e-05, No Iterations 1
DICPCG:  Solving for e, Initial residual = 0.000102854, Final residual = 2.74284e-08, No Iterations 2
ExecutionTime = 0.164961 s  ClockTime = 0 s

deltaT = 0.0072
Time = 0.0132s

DICPCG:  Solving for e, Initial residual = 0.397315, Final residual = 0.0020252, No Iterations 1
DICPCG:  Solving for e, Initial residual = 0.00215885, Final residual = 4.56145e-05, No Iterations 1
DICPCG:  Solving for e, Initial residual = 7.39734e-05, Final residual = 6.33622e-08, No Iterations 2
ExecutionTime = 0.171924 s  ClockTime = 0 s

deltaT = 0.00864
Time = 0.02184s

DICPCG:  Solving for e, Initial residual = 0.269399, Final residual = 0.00180099, No Iterations 1
DICPCG:  Solving for e, Initial residual = 0.0019032, Final residual = 5.15604e-05, No Iterations 1
DICPCG:  Solving for e, Initial residual = 7.63987e-05, Final residual = 1.72501e-07, No Iterations 2
ExecutionTime = 0.179008 s  ClockTime = 0 s

deltaT = 0.010368
Time = 0.032208s

DICPCG:  Solving for e, Initial residual = 0.215975, Final residual = 0.00190097, No Iterations 1
DICPCG:  Solving for e, Initial residual = 0.00195837, Final residual = 6.65228e-05, No Iterations 1
DICPCG:  Solving for e, Initial residual = 9.14659e-05, Final residual = 3.34912e-07, No Iterations 2
ExecutionTime = 0.185947 s  ClockTime = 0 s

deltaT = 0.0124416
Time = 0.0446496s

DICPCG:  Solving for e, Initial residual = 0.188002, Final residual = 0.00216854, No Iterations 1
DICPCG:  Solving for e, Initial residual = 0.00217958, Final residual = 9.20821e-05, No Iterations 1
DICPCG:  Solving for e, Initial residual = 0.000118494, Final residual = 6.13611e-07, No Iterations 2
ExecutionTime = 0.192958 s  ClockTime = 0 s

deltaT = 0.0149299
Time = 0.0595795s

DICPCG:  Solving for e, Initial residual = 0.171835, Final residual = 0.00257882, No Iterations 1
DICPCG:  Solving for e, Initial residual = 0.00253748, Final residual = 0.00013194, No Iterations 1
DICPCG:  Solving for e, Initial residual = 0.000160836, Final residual = 3.25856e-08, No Iterations 3
ExecutionTime = 0.199998 s  ClockTime = 0 s

deltaT = 0.0179159
Time = 0.0774954s

DICPCG:  Solving for e, Initial residual = 0.162243, Final residual = 0.00313853, No Iterations 1
DICPCG:  Solving for e, Initial residual = 0.0030485, Final residual = 0.000192494, No Iterations 1
DICPCG:  Solving for e, Initial residual = 0.000225401, Final residual = 6.82025e-08, No Iterations 3
ExecutionTime = 0.207286 s  ClockTime = 0 s

deltaT = 0.0214991
Time = 0.0989945s

DICPCG:  Solving for e, Initial residual = 0.156742, Final residual = 0.00387053, No Iterations 1
DICPCG:  Solving for e, Initial residual = 0.00372862, Final residual = 0.000283547, No Iterations 1
DICPCG:  Solving for e, Initial residual = 0.000322848, Final residual = 1.44101e-07, No Iterations 3
ExecutionTime = 0.214793 s  ClockTime = 0 s

deltaT = 0.0257989
Time = 0.124793s

DICPCG:  Solving for e, Initial residual = 0.15401, Final residual = 0.00480744, No Iterations 1
DICPCG:  Solving for e, Initial residual = 0.00460557, Final residual = 0.000420056, No Iterations 1
DICPCG:  Solving for e, Initial residual = 0.000467798, Final residual = 3.08701e-07, No Iterations 3
ExecutionTime = 0.222442 s  ClockTime = 0 s

deltaT = 0.0309587
Time = 0.155752s

DICPCG:  Solving for e, Initial residual = 0.153233, Final residual = 0.00599116, No Iterations 1
DICPCG:  Solving for e, Initial residual = 0.00572451, Final residual = 3.13062e-05, No Iterations 2
DICPCG:  Solving for e, Initial residual = 0.000177281, Final residual = 1.51258e-07, No Iterations 3
ExecutionTime = 0.230097 s  ClockTime = 0 s

deltaT = 0.0371504
Time = 0.192903s

DICPCG:  Solving for e, Initial residual = 0.153953, Final residual = 0.00747431, No Iterations 1
DICPCG:  Solving for e, Initial residual = 0.00713616, Final residual = 5.54477e-05, No Iterations 2
DICPCG:  Solving for e, Initial residual = 0.000245541, Final residual = 3.1161e-07, No Iterations 3
ExecutionTime = 0.237925 s  ClockTime = 0 s

deltaT = 0.0445805
Time = 0.237483s

DICPCG:  Solving for e, Initial residual = 0.155892, Final residual = 0.00932606, No Iterations 1
DICPCG:  Solving for e, Initial residual = 0.00889966, Final residual = 9.75208e-05, No Iterations 2
DICPCG:  Solving for e, Initial residual = 0.00034271, Final residual = 6.58434e-07, No Iterations 3
ExecutionTime = 0.245671 s  ClockTime = 0 s

deltaT = 0.0534966
Time = 0.29098s

DICPCG:  Solving for e, Initial residual = 0.158748, Final residual = 0.0116122, No Iterations 1
DICPCG:  Solving for e, Initial residual = 0.0110921, Final residual = 0.000169981, No Iterations 2
DICPCG:  Solving for e, Initial residual = 0.000483409, Final residual = 1.70829e-07, No Iterations 4
ExecutionTime = 0.253791 s  ClockTime = 0 s

deltaT = 0.0641959
Time = 0.355176s

DICPCG:  Solving for e, Initial residual = 0.162373, Final residual = 0.0144218, No Iterations 1
DICPCG:  Solving for e, Initial residual = 0.013799, Final residual = 0.000292242, No Iterations 2
DICPCG:  Solving for e, Initial residual = 0.000685507, Final residual = 4.34844e-07, No Iterations 4
ExecutionTime = 0.261698 s  ClockTime = 0 s

deltaT = 0.0770351
Time = 0.432211s

DICPCG:  Solving for e, Initial residual = 0.16665, Final residual = 0.00378239, No Iterations 2
DICPCG:  Solving for e, Initial residual = 0.00389836, Final residual = 0.000132247, No Iterations 2
DICPCG:  Solving for e, Initial residual = 0.000242356, Final residual = 2.25339e-07, No Iterations 4
ExecutionTime = 0.26987 s  ClockTime = 0 s

deltaT = 0.0924421
Time = 0.524653s

DICPCG:  Solving for e, Initial residual = 0.171427, Final residual = 0.00534098, No Iterations 2
DICPCG:  Solving for e, Initial residual = 0.00536488, Final residual = 0.000237363, No Iterations 2
DICPCG:  Solving for e, Initial residual = 0.000384649, Final residual = 6.28684e-07, No Iterations 4
ExecutionTime = 0.277895 s  ClockTime = 0 s

deltaT = 0.110931
Time = 0.635583s

DICPCG:  Solving for e, Initial residual = 0.176557, Final residual = 0.00740641, No Iterations 2
DICPCG:  Solving for e, Initial residual = 0.00733044, Final residual = 0.00041236, No Iterations 2
DICPCG:  Solving for e, Initial residual = 0.000610056, Final residual = 2.76348e-07, No Iterations 5
ExecutionTime = 0.28626 s  ClockTime = 0 s

deltaT = 0.133117
Time = 0.7687s

DICPCG:  Solving for e, Initial residual = 0.181973, Final residual = 0.010071, No Iterations 2
DICPCG:  Solving for e, Initial residual = 0.00989562, Final residual = 0.000691888, No Iterations 2
DICPCG:  Solving for e, Initial residual = 0.00095743, Final residual = 7.61244e-07, No Iterations 5
ExecutionTime = 0.294562 s  ClockTime = 0 s

deltaT = 0.15974
Time = 0.92844s

DICPCG:  Solving for e, Initial residual = 0.187613, Final residual = 0.0134179, No Iterations 2
DICPCG:  Solving for e, Initial residual = 0.0131383, Final residual = 0.00112018, No Iterations 2
DICPCG:  Solving for e, Initial residual = 0.00147597, Final residual = 5.35247e-07, No Iterations 6
ExecutionTime = 0.303196 s  ClockTime = 0 s

deltaT = 0.191688
--> FOAM Warning : 
    From function virtual Foam::Time& Foam::Time::operator++()
    in file db/Time/Time.C at line 1304
    Increased the timePrecision from 6 to 7 to distinguish between timeNames at time 1.120128
Time = 1.120128s

DICPCG:  Solving for e, Initial residual = 0.193353, Final residual = 0.0175082, No Iterations 2
DICPCG:  Solving for e, Initial residual = 0.0171079, Final residual = 0.000607081, No Iterations 3
DICPCG:  Solving for e, Initial residual = 0.00132932, Final residual = 9.27013e-07, No Iterations 6
ExecutionTime = 0.311849 s  ClockTime = 0 s

deltaT = 0.230026
Time = 1.350154s

DICPCG:  Solving for e, Initial residual = 0.19922, Final residual = 0.00648971, No Iterations 3
DICPCG:  Solving for e, Initial residual = 0.00703085, Final residual = 0.000407072, No Iterations 3
DICPCG:  Solving for e, Initial residual = 0.000711661, Final residual = 8.5701e-07, No Iterations 6
ExecutionTime = 0.320834 s  ClockTime = 0 s

deltaT = 0.276031
Time = 1.626184s

DICPCG:  Solving for e, Initial residual = 0.205214, Final residual = 0.00920418, No Iterations 3
DICPCG:  Solving for e, Initial residual = 0.00965313, Final residual = 0.000700409, No Iterations 3
DICPCG:  Solving for e, Initial residual = 0.00110634, Final residual = 7.88532e-07, No Iterations 7
ExecutionTime = 0.329835 s  ClockTime = 0 s

deltaT = 0.331237
Time = 1.957421s

DICPCG:  Solving for e, Initial residual = 0.211335, Final residual = 0.0128723, No Iterations 3
DICPCG:  Solving for e, Initial residual = 0.0132069, Final residual = 0.00118186, No Iterations 3
DICPCG:  Solving for e, Initial residual = 0.00171729, Final residual = 7.84862e-07, No Iterations 8
ExecutionTime = 0.339149 s  ClockTime = 0 s

deltaT = 0.397484
Time = 2.354905s

DICPCG:  Solving for e, Initial residual = 0.217587, Final residual = 0.017719, No Iterations 3
DICPCG:  Solving for e, Initial residual = 0.0179288, Final residual = 0.000800215, No Iterations 4
DICPCG:  Solving for e, Initial residual = 0.00186123, Final residual = 4.67569e-07, No Iterations 9
ExecutionTime = 0.348704 s  ClockTime = 0 s

deltaT = 0.476981
Time = 2.831886s

DICPCG:  Solving for e, Initial residual = 0.22403, Final residual = 0.00966943, No Iterations 4
DICPCG:  Solving for e, Initial residual = 0.010268, Final residual = 0.000647046, No Iterations 4
DICPCG:  Solving for e, Initial residual = 0.00138419, Final residual = 6.74422e-07, No Iterations 9
ExecutionTime = 0.358532 s  ClockTime = 0 s

deltaT = 0.5
Time = 3.331886s

DICPCG:  Solving for e, Initial residual = 0.21185, Final residual = 0.00984155, No Iterations 4
DICPCG:  Solving for e, Initial residual = 0.0102814, Final residual = 0.000684, No Iterations 4
DICPCG:  Solving for e, Initial residual = 0.00142829, Final residual = 8.37525e-07, No Iterations 9
ExecutionTime = 0.368299 s  ClockTime = 0 s

deltaT = 0.5
Time = 3.831886s

DICPCG:  Solving for e, Initial residual = 0.19574, Final residual = 0.00904589, No Iterations 4
DICPCG:  Solving for e, Initial residual = 0.00936561, Final residual = 0.000623063, No Iterations 4
DICPCG:  Solving for e, Initial residual = 0.00130327, Final residual = 7.599e-07, No Iterations 9
ExecutionTime = 0.378124 s  ClockTime = 0 s

deltaT = 0.5
Time = 4.331886s

DICPCG:  Solving for e, Initial residual = 0.182548, Final residual = 0.00840215, No Iterations 4
DICPCG:  Solving for e, Initial residual = 0.00864421, Final residual = 0.000574727, No Iterations 4
DICPCG:  Solving for e, Initial residual = 0.00120379, Final residual = 6.97793e-07, No Iterations 9
ExecutionTime = 0.387817 s  ClockTime = 0 s

deltaT = 0.5
Time = 4.831886s

DICPCG:  Solving for e, Initial residual = 0.171631, Final residual = 0.00787449, No Iterations 4
DICPCG:  Solving for e, Initial residual = 0.00806111, Final residual = 0.000535309, No Iterations 4
DICPCG:  Solving for e, Initial residual = 0.00112293, Final residual = 6.47467e-07, No Iterations 9
ExecutionTime = 0.411386 s  ClockTime = 0 s

deltaT = 0.5
Time = 5.331886s

DICPCG:  Solving for e, Initial residual = 0.162452, Final residual = 0.00743433, No Iterations 4
DICPCG:  Solving for e, Initial residual = 0.00757898, Final residual = 0.000502324, No Iterations 4
DICPCG:  Solving for e, Initial residual = 0.00105569, Final residual = 6.05833e-07, No Iterations 9
ExecutionTime = 0.422031 s  ClockTime = 0 s

deltaT = 0.5
Time = 5.831886s

DICPCG:  Solving for e, Initial residual = 0.154613, Final residual = 0.00706117, No Iterations 4
DICPCG:  Solving for e, Initial residual = 0.00717541, Final residual = 0.000474383, No Iterations 4
DICPCG:  Solving for e, Initial residual = 0.000999132, Final residual = 5.71339e-07, No Iterations 9
ExecutionTime = 0.433722 s  ClockTime = 0 s

deltaT = 0.5
Time = 6.331886s

DICPCG:  Solving for e, Initial residual = 0.14788, Final residual = 0.00674263, No Iterations 4
DICPCG:  Solving for e, Initial residual = 0.00683156, Final residual = 0.000450354, No Iterations 4
DICPCG:  Solving for e, Initial residual = 0.000950694, Final residual = 5.42581e-07, No Iterations 9
ExecutionTime = 0.444155 s  ClockTime = 0 s

deltaT = 0.5
Time = 6.831886s

DICPCG:  Solving for e, Initial residual = 0.14203, Final residual = 0.0064674, No Iterations 4
DICPCG:  Solving for e, Initial residual = 0.00653674, Final residual = 0.000429569, No Iterations 4
DICPCG:  Solving for e, Initial residual = 0.000909096, Final residual = 5.18243e-07, No Iterations 9
ExecutionTime = 0.454712 s  ClockTime = 0 s

deltaT = 0.5
Time = 7.331886s

DICPCG:  Solving for e, Initial residual = 0.136916, Final residual = 0.00622815, No Iterations 4
DICPCG:  Solving for e, Initial residual = 0.00628155, Final residual = 0.000411502, No Iterations 4
DICPCG:  Solving for e, Initial residual = 0.000873017, Final residual = 4.97563e-07, No Iterations 9
ExecutionTime = 0.464996 s  ClockTime = 0 s

deltaT = 0.5
Time = 7.831886s

DICPCG:  Solving for e, Initial residual = 0.132411, Final residual = 0.00601844, No Iterations 4
DICPCG:  Solving for e, Initial residual = 0.00605917, Final residual = 0.000395638, No Iterations 4
DICPCG:  Solving for e, Initial residual = 0.000841474, Final residual = 4.79521e-07, No Iterations 9
ExecutionTime = 0.475411 s  ClockTime = 0 s

deltaT = 0.5
Time = 8.331886s

DICPCG:  Solving for e, Initial residual = 0.128412, Final residual = 0.00583297, No Iterations 4
DICPCG:  Solving for e, Initial residual = 0.0058642, Final residual = 0.000381655, No Iterations 4
DICPCG:  Solving for e, Initial residual = 0.00081376, Final residual = 4.63736e-07, No Iterations 9
ExecutionTime = 0.485687 s  ClockTime = 0 s

deltaT = 0.5
Time = 8.831886s

DICPCG:  Solving for e, Initial residual = 0.124841, Final residual = 0.00566808, No Iterations 4
DICPCG:  Solving for e, Initial residual = 0.00569215, Final residual = 0.000369249, No Iterations 4
DICPCG:  Solving for e, Initial residual = 0.000789224, Final residual = 4.49876e-07, No Iterations 9
ExecutionTime = 0.496087 s  ClockTime = 1 s

deltaT = 0.5
Time = 9.331886s

DICPCG:  Solving for e, Initial residual = 0.121637, Final residual = 0.00552087, No Iterations 4
DICPCG:  Solving for e, Initial residual = 0.00553932, Final residual = 0.00035821, No Iterations 4
DICPCG:  Solving for e, Initial residual = 0.000767376, Final residual = 4.37596e-07, No Iterations 9
ExecutionTime = 0.506341 s  ClockTime = 1 s

deltaT = 0.5
Time = 9.831886s

DICPCG:  Solving for e, Initial residual = 0.118752, Final residual = 0.00538893, No Iterations 4
DICPCG:  Solving for e, Initial residual = 0.00540307, Final residual = 0.00034834, No Iterations 4
DICPCG:  Solving for e, Initial residual = 0.000747829, Final residual = 9.88564e-07, No Iterations 8
ExecutionTime = 0.529567 s  ClockTime = 1 s

deltaT = 0.5
--> FOAM Warning : 
    From function virtual Foam::Time& Foam::Time::operator++()
    in file db/Time/Time.C at line 1304
    Increased the timePrecision from 7 to 8 to distinguish between timeNames at time 10.331886
Time = 10.331886s

DICPCG:  Solving for e, Initial residual = 0.116144, Final residual = 0.00527002, No Iterations 4
DICPCG:  Solving for e, Initial residual = 0.00528065, Final residual = 0.000339476, No Iterations 4
DICPCG:  Solving for e, Initial residual = 0.000730295, Final residual = 9.65473e-07, No Iterations 8
ExecutionTime = 0.539702 s  ClockTime = 1 s

deltaT = 0.5
Time = 10.831886s

DICPCG:  Solving for e, Initial residual = 0.113772, Final residual = 0.0051624, No Iterations 4
DICPCG:  Solving for e, Initial residual = 0.00516979, Final residual = 0.000331443, No Iterations 4
DICPCG:  Solving for e, Initial residual = 0.000714373, Final residual = 9.44855e-07, No Iterations 8
ExecutionTime = 0.549922 s  ClockTime = 1 s

deltaT = 0.5
Time = 11.331886s

DICPCG:  Solving for e, Initial residual = 0.111606, Final residual = 0.00506459, No Iterations 4
DICPCG:  Solving for e, Initial residual = 0.00506959, Final residual = 0.000324176, No Iterations 4
DICPCG:  Solving for e, Initial residual = 0.000699964, Final residual = 9.26291e-07, No Iterations 8
ExecutionTime = 0.559997 s  ClockTime = 1 s

deltaT = 0.5
Time = 11.831886s

DICPCG:  Solving for e, Initial residual = 0.109625, Final residual = 0.00497541, No Iterations 4
DICPCG:  Solving for e, Initial residual = 0.00497844, Final residual = 0.000317565, No Iterations 4
DICPCG:  Solving for e, Initial residual = 0.000686857, Final residual = 9.09491e-07, No Iterations 8
ExecutionTime = 0.570289 s  ClockTime = 1 s

deltaT = 0.5
Time = 12.331886s

DICPCG:  Solving for e, Initial residual = 0.10781, Final residual = 0.00489392, No Iterations 4
DICPCG:  Solving for e, Initial residual = 0.00489531, Final residual = 0.000311541, No Iterations 4
DICPCG:  Solving for e, Initial residual = 0.000674915, Final residual = 8.94245e-07, No Iterations 8
ExecutionTime = 0.580435 s  ClockTime = 1 s

deltaT = 0.5
Time = 12.831886s

DICPCG:  Solving for e, Initial residual = 0.106142, Final residual = 0.00481921, No Iterations 4
DICPCG:  Solving for e, Initial residual = 0.00481938, Final residual = 0.000306043, No Iterations 4
DICPCG:  Solving for e, Initial residual = 0.000664027, Final residual = 8.80375e-07, No Iterations 8
ExecutionTime = 0.590668 s  ClockTime = 1 s

deltaT = 0.5
Time = 13.331886s

DICPCG:  Solving for e, Initial residual = 0.104607, Final residual = 0.00475062, No Iterations 4
DICPCG:  Solving for e, Initial residual = 0.00474972, Final residual = 0.000301, No Iterations 4
DICPCG:  Solving for e, Initial residual = 0.000654037, Final residual = 8.67713e-07, No Iterations 8
ExecutionTime = 0.600729 s  ClockTime = 1 s

deltaT = 0.5
Time = 13.831886s

DICPCG:  Solving for e, Initial residual = 0.10319, Final residual = 0.00468749, No Iterations 4
DICPCG:  Solving for e, Initial residual = 0.00468557, Final residual = 0.000296379, No Iterations 4
DICPCG:  Solving for e, Initial residual = 0.000644851, Final residual = 8.56113e-07, No Iterations 8
ExecutionTime = 0.610932 s  ClockTime = 1 s

deltaT = 0.5
Time = 14.331886s

DICPCG:  Solving for e, Initial residual = 0.101878, Final residual = 0.00462919, No Iterations 4
DICPCG:  Solving for e, Initial residual = 0.00462631, Final residual = 0.000292127, No Iterations 4
DICPCG:  Solving for e, Initial residual = 0.000636374, Final residual = 8.45439e-07, No Iterations 8
ExecutionTime = 0.621 s  ClockTime = 1 s

deltaT = 0.5
Time = 14.831886s

DICPCG:  Solving for e, Initial residual = 0.10066, Final residual = 0.00457521, No Iterations 4
DICPCG:  Solving for e, Initial residual = 0.00457152, Final residual = 0.000288197, No Iterations 4
DICPCG:  Solving for e, Initial residual = 0.000628546, Final residual = 8.35603e-07, No Iterations 8
ExecutionTime = 0.644518 s  ClockTime = 1 s

deltaT = 0.5
Time = 15.331886s

DICPCG:  Solving for e, Initial residual = 0.0995257, Final residual = 0.00452507, No Iterations 4
DICPCG:  Solving for e, Initial residual = 0.00452088, Final residual = 0.000284571, No Iterations 4
DICPCG:  Solving for e, Initial residual = 0.000621314, Final residual = 8.26522e-07, No Iterations 8
ExecutionTime = 0.6548 s  ClockTime = 1 s

deltaT = 0.5
Time = 15.831886s

DICPCG:  Solving for e, Initial residual = 0.098468, Final residual = 0.00447845, No Iterations 4
DICPCG:  Solving for e, Initial residual = 0.00447388, Final residual = 0.000281219, No Iterations 4
DICPCG:  Solving for e, Initial residual = 0.000614611, Final residual = 8.18112e-07, No Iterations 8
ExecutionTime = 0.665028 s  ClockTime = 1 s

deltaT = 0.5
Time = 16.331886s

DICPCG:  Solving for e, Initial residual = 0.0974784, Final residual = 0.00443494, No Iterations 4
DICPCG:  Solving for e, Initial residual = 0.00443003, Final residual = 0.000278101, No Iterations 4
DICPCG:  Solving for e, Initial residual = 0.000608366, Final residual = 8.10294e-07, No Iterations 8
ExecutionTime = 0.675108 s  ClockTime = 1 s

deltaT = 0.5
Time = 16.831886s

DICPCG:  Solving for e, Initial residual = 0.096551, Final residual = 0.00439426, No Iterations 4
DICPCG:  Solving for e, Initial residual = 0.00438904, Final residual = 0.000275191, No Iterations 4
DICPCG:  Solving for e, Initial residual = 0.00060254, Final residual = 8.03009e-07, No Iterations 8
ExecutionTime = 0.685414 s  ClockTime = 1 s

deltaT = 0.5
Time = 17.331886s

DICPCG:  Solving for e, Initial residual = 0.0956818, Final residual = 0.00435623, No Iterations 4
DICPCG:  Solving for e, Initial residual = 0.00435077, Final residual = 0.00027248, No Iterations 4
DICPCG:  Solving for e, Initial residual = 0.000597099, Final residual = 7.9624e-07, No Iterations 8
ExecutionTime = 0.695593 s  ClockTime = 1 s

deltaT = 0.5
Time = 17.831886s

DICPCG:  Solving for e, Initial residual = 0.094866, Final residual = 0.00432062, No Iterations 4
DICPCG:  Solving for e, Initial residual = 0.00431499, Final residual = 0.000269957, No Iterations 4
DICPCG:  Solving for e, Initial residual = 0.000592016, Final residual = 7.89949e-07, No Iterations 8
ExecutionTime = 0.706169 s  ClockTime = 1 s

deltaT = 0.5
Time = 18.331886s

DICPCG:  Solving for e, Initial residual = 0.0941001, Final residual = 0.00428727, No Iterations 4
DICPCG:  Solving for e, Initial residual = 0.00428144, Final residual = 0.0002676, No Iterations 4
DICPCG:  Solving for e, Initial residual = 0.000587251, Final residual = 7.84069e-07, No Iterations 8
ExecutionTime = 0.716883 s  ClockTime = 1 s

deltaT = 0.5
Time = 18.831886s

DICPCG:  Solving for e, Initial residual = 0.0933796, Final residual = 0.00425597, No Iterations 4
DICPCG:  Solving for e, Initial residual = 0.00425, Final residual = 0.000265396, No Iterations 4
DICPCG:  Solving for e, Initial residual = 0.000582787, Final residual = 7.78559e-07, No Iterations 8
ExecutionTime = 0.727762 s  ClockTime = 1 s

deltaT = 0.5
Time = 19.331886s

DICPCG:  Solving for e, Initial residual = 0.0927007, Final residual = 0.00422654, No Iterations 4
DICPCG:  Solving for e, Initial residual = 0.00422043, Final residual = 0.000263328, No Iterations 4
DICPCG:  Solving for e, Initial residual = 0.000578592, Final residual = 7.73375e-07, No Iterations 8
ExecutionTime = 0.73854 s  ClockTime = 1 s

deltaT = 0.5
Time = 19.831886s

DICPCG:  Solving for e, Initial residual = 0.0920599, Final residual = 0.00419883, No Iterations 4
DICPCG:  Solving for e, Initial residual = 0.00419254, Final residual = 0.000261387, No Iterations 4
DICPCG:  Solving for e, Initial residual = 0.000574649, Final residual = 7.68511e-07, No Iterations 8
ExecutionTime = 0.763324 s  ClockTime = 1 s

deltaT = 0.5
Time = 20.331886s

DICPCG:  Solving for e, Initial residual = 0.0914551, Final residual = 0.00417274, No Iterations 4
DICPCG:  Solving for e, Initial residual = 0.00416626, Final residual = 0.000259568, No Iterations 4
DICPCG:  Solving for e, Initial residual = 0.000570942, Final residual = 7.63935e-07, No Iterations 8
ExecutionTime = 0.774106 s  ClockTime = 1 s

deltaT = 0.5
Time = 20.831886s

DICPCG:  Solving for e, Initial residual = 0.0908835, Final residual = 0.00414815, No Iterations 4
DICPCG:  Solving for e, Initial residual = 0.00414144, Final residual = 0.000257857, No Iterations 4
DICPCG:  Solving for e, Initial residual = 0.000567442, Final residual = 7.59619e-07, No Iterations 8
ExecutionTime = 0.784969 s  ClockTime = 1 s

deltaT = 0.5
Time = 21.331886s

DICPCG:  Solving for e, Initial residual = 0.0903421, Final residual = 0.00412491, No Iterations 4
DICPCG:  Solving for e, Initial residual = 0.00411795, Final residual = 0.000256248, No Iterations 4
DICPCG:  Solving for e, Initial residual = 0.000564149, Final residual = 7.55554e-07, No Iterations 8
ExecutionTime = 0.795651 s  ClockTime = 1 s

deltaT = 0.5
Time = 21.831886s

DICPCG:  Solving for e, Initial residual = 0.0898293, Final residual = 0.00410295, No Iterations 4
DICPCG:  Solving for e, Initial residual = 0.00409573, Final residual = 0.000254735, No Iterations 4
DICPCG:  Solving for e, Initial residual = 0.000561049, Final residual = 7.51719e-07, No Iterations 8
ExecutionTime = 0.806502 s  ClockTime = 1 s

deltaT = 0.5
Time = 22.331886s

DICPCG:  Solving for e, Initial residual = 0.0893429, Final residual = 0.00408217, No Iterations 4
DICPCG:  Solving for e, Initial residual = 0.00407473, Final residual = 0.000253308, No Iterations 4
DICPCG:  Solving for e, Initial residual = 0.000558128, Final residual = 7.48101e-07, No Iterations 8
ExecutionTime = 0.817174 s  ClockTime = 1 s

deltaT = 0.5
Time = 22.831886s

DICPCG:  Solving for e, Initial residual = 0.0888816, Final residual = 0.0040625, No Iterations 4
DICPCG:  Solving for e, Initial residual = 0.00405487, Final residual = 0.000251963, No Iterations 4
DICPCG:  Solving for e, Initial residual = 0.000555361, Final residual = 7.4467e-07, No Iterations 8
ExecutionTime = 0.828021 s  ClockTime = 1 s

deltaT = 0.5
Time = 23.331886s

DICPCG:  Solving for e, Initial residual = 0.088443, Final residual = 0.00404384, No Iterations 4
DICPCG:  Solving for e, Initial residual = 0.00403606, Final residual = 0.000250692, No Iterations 4
DICPCG:  Solving for e, Initial residual = 0.000552737, Final residual = 7.41416e-07, No Iterations 8
ExecutionTime = 0.838706 s  ClockTime = 1 s

deltaT = 0.5
Time = 23.831886s

DICPCG:  Solving for e, Initial residual = 0.0880263, Final residual = 0.00402615, No Iterations 4
DICPCG:  Solving for e, Initial residual = 0.00401821, Final residual = 0.000249491, No Iterations 4
DICPCG:  Solving for e, Initial residual = 0.000550251, Final residual = 7.38341e-07, No Iterations 8
ExecutionTime = 0.84964 s  ClockTime = 1 s

deltaT = 0.5
Time = 24.331886s

DICPCG:  Solving for e, Initial residual = 0.0876305, Final residual = 0.00400938, No Iterations 4
DICPCG:  Solving for e, Initial residual = 0.00400127, Final residual = 0.000248354, No Iterations 4
DICPCG:  Solving for e, Initial residual = 0.00054789, Final residual = 7.35427e-07, No Iterations 8
ExecutionTime = 0.860377 s  ClockTime = 1 s

deltaT = 0.5
Time = 24.831886s

DICPCG:  Solving for e, Initial residual = 0.0872535, Final residual = 0.00399345, No Iterations 4
DICPCG:  Solving for e, Initial residual = 0.00398515, Final residual = 0.000247276, No Iterations 4
DICPCG:  Solving for e, Initial residual = 0.000545647, Final residual = 7.32653e-07, No Iterations 8
ExecutionTime = 0.885001 s  ClockTime = 1 s

deltaT = 0.5
Time = 25.331886s

DICPCG:  Solving for e, Initial residual = 0.0868944, Final residual = 0.0039783, No Iterations 4
DICPCG:  Solving for e, Initial residual = 0.0039698, Final residual = 0.000246255, No Iterations 4
DICPCG:  Solving for e, Initial residual = 0.000543518, Final residual = 7.30016e-07, No Iterations 8
ExecutionTime = 0.895787 s  ClockTime = 1 s

deltaT = 0.5
Time = 25.831886s

DICPCG:  Solving for e, Initial residual = 0.0865521, Final residual = 0.00396389, No Iterations 4
DICPCG:  Solving for e, Initial residual = 0.00395522, Final residual = 0.000245288, No Iterations 4
DICPCG:  Solving for e, Initial residual = 0.000541498, Final residual = 7.27511e-07, No Iterations 8
ExecutionTime = 0.906728 s  ClockTime = 1 s

deltaT = 0.5
Time = 26.331886s

DICPCG:  Solving for e, Initial residual = 0.0862258, Final residual = 0.00395018, No Iterations 4
DICPCG:  Solving for e, Initial residual = 0.00394133, Final residual = 0.000244373, No Iterations 4
DICPCG:  Solving for e, Initial residual = 0.000539579, Final residual = 7.25125e-07, No Iterations 8
ExecutionTime = 0.917418 s  ClockTime = 1 s

deltaT = 0.5
Time = 26.831886s

DICPCG:  Solving for e, Initial residual = 0.0859144, Final residual = 0.00393713, No Iterations 4
DICPCG:  Solving for e, Initial residual = 0.00392812, Final residual = 0.000243506, No Iterations 4
DICPCG:  Solving for e, Initial residual = 0.000537757, Final residual = 7.22852e-07, No Iterations 8
ExecutionTime = 0.928254 s  ClockTime = 1 s

deltaT = 0.5
Time = 27.331886s

DICPCG:  Solving for e, Initial residual = 0.0856174, Final residual = 0.00392471, No Iterations 4
DICPCG:  Solving for e, Initial residual = 0.00391552, Final residual = 0.000242682, No Iterations 4
DICPCG:  Solving for e, Initial residual = 0.000536021, Final residual = 7.20686e-07, No Iterations 8
ExecutionTime = 0.938926 s  ClockTime = 1 s

deltaT = 0.5
Time = 27.831886s

DICPCG:  Solving for e, Initial residual = 0.0853338, Final residual = 0.00391286, No Iterations 4
DICPCG:  Solving for e, Initial residual = 0.0039035, Final residual = 0.0002419, No Iterations 4
DICPCG:  Solving for e, Initial residual = 0.000534366, Final residual = 7.18626e-07, No Iterations 8
ExecutionTime = 0.949763 s  ClockTime = 1 s

deltaT = 0.5
Time = 28.331886s

DICPCG:  Solving for e, Initial residual = 0.0850628, Final residual = 0.00390157, No Iterations 4
DICPCG:  Solving for e, Initial residual = 0.00389204, Final residual = 0.000241157, No Iterations 4
DICPCG:  Solving for e, Initial residual = 0.000532792, Final residual = 7.16666e-07, No Iterations 8
ExecutionTime = 0.960441 s  ClockTime = 1 s

deltaT = 0.5
Time = 28.831886s

DICPCG:  Solving for e, Initial residual = 0.0848037, Final residual = 0.0038908, No Iterations 4
DICPCG:  Solving for e, Initial residual = 0.00388111, Final residual = 0.000240449, No Iterations 4
DICPCG:  Solving for e, Initial residual = 0.000531291, Final residual = 7.14795e-07, No Iterations 8
ExecutionTime = 0.971399 s  ClockTime = 1 s

deltaT = 0.5
Time = 29.331886s

DICPCG:  Solving for e, Initial residual = 0.0845559, Final residual = 0.00388052, No Iterations 4
DICPCG:  Solving for e, Initial residual = 0.00387067, Final residual = 0.000239774, No Iterations 4
DICPCG:  Solving for e, Initial residual = 0.000529853, Final residual = 7.13001e-07, No Iterations 8
ExecutionTime = 0.982112 s  ClockTime = 1 s

deltaT = 0.5
Time = 29.831886s

DICPCG:  Solving for e, Initial residual = 0.0843184, Final residual = 0.00387067, No Iterations 4
DICPCG:  Solving for e, Initial residual = 0.00386068, Final residual = 0.000239129, No Iterations 4
DICPCG:  Solving for e, Initial residual = 0.000528482, Final residual = 7.11287e-07, No Iterations 8
ExecutionTime = 1.00683 s  ClockTime = 1 s

deltaT = 0.5
Time = 30.331886s

DICPCG:  Solving for e, Initial residual = 0.084091, Final residual = 0.00386127, No Iterations 4
DICPCG:  Solving for e, Initial residual = 0.00385111, Final residual = 0.000238514, No Iterations 4
DICPCG:  Solving for e, Initial residual = 0.000527171, Final residual = 7.09648e-07, No Iterations 8
ExecutionTime = 1.01788 s  ClockTime = 1 s

deltaT = 0.5
Time = 30.831886s

DICPCG:  Solving for e, Initial residual = 0.0838731, Final residual = 0.00385227, No Iterations 4
DICPCG:  Solving for e, Initial residual = 0.00384194, Final residual = 0.000237926, No Iterations 4
DICPCG:  Solving for e, Initial residual = 0.000525916, Final residual = 7.08077e-07, No Iterations 8
ExecutionTime = 1.02961 s  ClockTime = 1 s

deltaT = 0.5
Time = 31.331886s

DICPCG:  Solving for e, Initial residual = 0.0836638, Final residual = 0.00384364, No Iterations 4
DICPCG:  Solving for e, Initial residual = 0.00383316, Final residual = 0.000237364, No Iterations 4
DICPCG:  Solving for e, Initial residual = 0.000524715, Final residual = 7.06572e-07, No Iterations 8
ExecutionTime = 1.04063 s  ClockTime = 1 s

deltaT = 0.5
Time = 31.831886s

DICPCG:  Solving for e, Initial residual = 0.0834628, Final residual = 0.00383537, No Iterations 4
DICPCG:  Solving for e, Initial residual = 0.00382475, Final residual = 0.000236827, No Iterations 4
DICPCG:  Solving for e, Initial residual = 0.000523563, Final residual = 7.0513e-07, No Iterations 8
ExecutionTime = 1.0516 s  ClockTime = 1 s

deltaT = 0.5
Time = 32.331886s

DICPCG:  Solving for e, Initial residual = 0.08327, Final residual = 0.00382745, No Iterations 4
DICPCG:  Solving for e, Initial residual = 0.00381669, Final residual = 0.000236314, No Iterations 4
DICPCG:  Solving for e, Initial residual = 0.00052246, Final residual = 7.03747e-07, No Iterations 8
ExecutionTime = 1.06253 s  ClockTime = 1 s

deltaT = 0.5
Time = 32.831886s

DICPCG:  Solving for e, Initial residual = 0.0830845, Final residual = 0.00381985, No Iterations 4
DICPCG:  Solving for e, Initial residual = 0.00380895, Final residual = 0.000235822, No Iterations 4
DICPCG:  Solving for e, Initial residual = 0.000521404, Final residual = 7.02421e-07, No Iterations 8
ExecutionTime = 1.0735 s  ClockTime = 1 s

deltaT = 0.5
Time = 33.331886s

DICPCG:  Solving for e, Initial residual = 0.0829063, Final residual = 0.00381255, No Iterations 4
DICPCG:  Solving for e, Initial residual = 0.00380153, Final residual = 0.000235352, No Iterations 4
DICPCG:  Solving for e, Initial residual = 0.000520392, Final residual = 7.01151e-07, No Iterations 8
ExecutionTime = 1.08433 s  ClockTime = 1 s

deltaT = 0.5
Time = 33.831886s

DICPCG:  Solving for e, Initial residual = 0.0827352, Final residual = 0.00380555, No Iterations 4
DICPCG:  Solving for e, Initial residual = 0.00379442, Final residual = 0.000234902, No Iterations 4
DICPCG:  Solving for e, Initial residual = 0.000519422, Final residual = 6.99933e-07, No Iterations 8
ExecutionTime = 1.09531 s  ClockTime = 1 s

deltaT = 0.5
Time = 34.331886s

DICPCG:  Solving for e, Initial residual = 0.0825708, Final residual = 0.00379884, No Iterations 4
DICPCG:  Solving for e, Initial residual = 0.0037876, Final residual = 0.000234473, No Iterations 4
DICPCG:  Solving for e, Initial residual = 0.000518492, Final residual = 6.98767e-07, No Iterations 8
ExecutionTime = 1.1061 s  ClockTime = 1 s

deltaT = 0.5
Time = 34.831886s

DICPCG:  Solving for e, Initial residual = 0.0824127, Final residual = 0.0037924, No Iterations 4
DICPCG:  Solving for e, Initial residual = 0.00378106, Final residual = 0.000234062, No Iterations 4
DICPCG:  Solving for e, Initial residual = 0.000517602, Final residual = 6.97647e-07, No Iterations 8
ExecutionTime = 1.13182 s  ClockTime = 1 s

deltaT = 0.5
Time = 35.331886s

DICPCG:  Solving for e, Initial residual = 0.0822607, Final residual = 0.00378622, No Iterations 4
DICPCG:  Solving for e, Initial residual = 0.00377476, Final residual = 0.000233667, No Iterations 4
DICPCG:  Solving for e, Initial residual = 0.000516748, Final residual = 6.9657e-07, No Iterations 8
ExecutionTime = 1.14331 s  ClockTime = 1 s

deltaT = 0.5
Time = 35.831886s

DICPCG:  Solving for e, Initial residual = 0.0821144, Final residual = 0.00378027, No Iterations 4
DICPCG:  Solving for e, Initial residual = 0.00376872, Final residual = 0.000233289, No Iterations 4
DICPCG:  Solving for e, Initial residual = 0.00051593, Final residual = 6.95539e-07, No Iterations 8
ExecutionTime = 1.1553 s  ClockTime = 1 s

deltaT = 0.5
Time = 36.331886s

DICPCG:  Solving for e, Initial residual = 0.0819736, Final residual = 0.00377456, No Iterations 4
DICPCG:  Solving for e, Initial residual = 0.00376292, Final residual = 0.000232928, No Iterations 4
DICPCG:  Solving for e, Initial residual = 0.000515146, Final residual = 6.9455e-07, No Iterations 8
ExecutionTime = 1.16696 s  ClockTime = 1 s

deltaT = 0.5
Time = 36.831886s

DICPCG:  Solving for e, Initial residual = 0.0818382, Final residual = 0.00376907, No Iterations 4
DICPCG:  Solving for e, Initial residual = 0.00375735, Final residual = 0.000232581, No Iterations 4
DICPCG:  Solving for e, Initial residual = 0.000514393, Final residual = 6.936e-07, No Iterations 8
ExecutionTime = 1.17878 s  ClockTime = 1 s

deltaT = 0.5
Time = 37.331886s

DICPCG:  Solving for e, Initial residual = 0.0817079, Final residual = 0.0037638, No Iterations 4
DICPCG:  Solving for e, Initial residual = 0.003752, Final residual = 0.000232249, No Iterations 4
DICPCG:  Solving for e, Initial residual = 0.000513671, Final residual = 6.92688e-07, No Iterations 8
ExecutionTime = 1.19035 s  ClockTime = 1 s

deltaT = 0.5
Time = 37.831886s

DICPCG:  Solving for e, Initial residual = 0.0815826, Final residual = 0.00375874, No Iterations 4
DICPCG:  Solving for e, Initial residual = 0.00374685, Final residual = 0.00023193, No Iterations 4
DICPCG:  Solving for e, Initial residual = 0.000512976, Final residual = 6.91812e-07, No Iterations 8
ExecutionTime = 1.20216 s  ClockTime = 1 s

deltaT = 0.5
Time = 38.331886s

DICPCG:  Solving for e, Initial residual = 0.0814619, Final residual = 0.00375387, No Iterations 4
DICPCG:  Solving for e, Initial residual = 0.0037419, Final residual = 0.000231623, No Iterations 4
DICPCG:  Solving for e, Initial residual = 0.000512306, Final residual = 6.90966e-07, No Iterations 8
ExecutionTime = 1.21382 s  ClockTime = 1 s

deltaT = 0.5
Time = 38.831886s

DICPCG:  Solving for e, Initial residual = 0.0813455, Final residual = 0.00374918, No Iterations 4
DICPCG:  Solving for e, Initial residual = 0.00373714, Final residual = 0.000231328, No Iterations 4
DICPCG:  Solving for e, Initial residual = 0.000511663, Final residual = 6.90154e-07, No Iterations 8
ExecutionTime = 1.22558 s  ClockTime = 1 s

deltaT = 0.5
Time = 39.331886s

DICPCG:  Solving for e, Initial residual = 0.0812333, Final residual = 0.00374466, No Iterations 4
DICPCG:  Solving for e, Initial residual = 0.00373258, Final residual = 0.000231045, No Iterations 4
DICPCG:  Solving for e, Initial residual = 0.000511043, Final residual = 6.89373e-07, No Iterations 8
ExecutionTime = 1.23718 s  ClockTime = 1 s

deltaT = 0.5
Time = 39.831886s

DICPCG:  Solving for e, Initial residual = 0.0811252, Final residual = 0.00374032, No Iterations 4
DICPCG:  Solving for e, Initial residual = 0.00372817, Final residual = 0.000230772, No Iterations 4
DICPCG:  Solving for e, Initial residual = 0.000510446, Final residual = 6.88619e-07, No Iterations 8
ExecutionTime = 1.2638 s  ClockTime = 1 s

deltaT = 0.5
Time = 40.331886s

DICPCG:  Solving for e, Initial residual = 0.0810209, Final residual = 0.00373613, No Iterations 4
DICPCG:  Solving for e, Initial residual = 0.00372393, Final residual = 0.00023051, No Iterations 4
DICPCG:  Solving for e, Initial residual = 0.00050987, Final residual = 6.87892e-07, No Iterations 8
ExecutionTime = 1.27542 s  ClockTime = 1 s

deltaT = 0.5
Time = 40.831886s

DICPCG:  Solving for e, Initial residual = 0.0809202, Final residual = 0.00373209, No Iterations 4
DICPCG:  Solving for e, Initial residual = 0.00371984, Final residual = 0.000230257, No Iterations 4
DICPCG:  Solving for e, Initial residual = 0.000509316, Final residual = 6.87192e-07, No Iterations 8
ExecutionTime = 1.28713 s  ClockTime = 1 s

deltaT = 0.5
Time = 41.331886s

DICPCG:  Solving for e, Initial residual = 0.0808231, Final residual = 0.0037282, No Iterations 4
DICPCG:  Solving for e, Initial residual = 0.0037159, Final residual = 0.000230014, No Iterations 4
DICPCG:  Solving for e, Initial residual = 0.000508783, Final residual = 6.86519e-07, No Iterations 8
ExecutionTime = 1.29873 s  ClockTime = 1 s

deltaT = 0.5
Time = 41.831886s

DICPCG:  Solving for e, Initial residual = 0.0807294, Final residual = 0.00372445, No Iterations 4
DICPCG:  Solving for e, Initial residual = 0.00371212, Final residual = 0.000229781, No Iterations 4
DICPCG:  Solving for e, Initial residual = 0.000508269, Final residual = 6.8587e-07, No Iterations 8
ExecutionTime = 1.31055 s  ClockTime = 1 s

deltaT = 0.5
Time = 42.331886s

DICPCG:  Solving for e, Initial residual = 0.0806391, Final residual = 0.00372083, No Iterations 4
DICPCG:  Solving for e, Initial residual = 0.00370847, Final residual = 0.000229556, No Iterations 4
DICPCG:  Solving for e, Initial residual = 0.000507776, Final residual = 6.85246e-07, No Iterations 8
ExecutionTime = 1.32211 s  ClockTime = 1 s

deltaT = 0.5
Time = 42.831886s

DICPCG:  Solving for e, Initial residual = 0.0805519, Final residual = 0.00371735, No Iterations 4
DICPCG:  Solving for e, Initial residual = 0.00370496, Final residual = 0.00022934, No Iterations 4
DICPCG:  Solving for e, Initial residual = 0.0005073, Final residual = 6.84645e-07, No Iterations 8
ExecutionTime = 1.33384 s  ClockTime = 1 s

deltaT = 0.5
Time = 43.331886s

DICPCG:  Solving for e, Initial residual = 0.0804679, Final residual = 0.003714, No Iterations 4
DICPCG:  Solving for e, Initial residual = 0.00370157, Final residual = 0.000229132, No Iterations 4
DICPCG:  Solving for e, Initial residual = 0.000506842, Final residual = 6.84067e-07, No Iterations 8
ExecutionTime = 1.34534 s  ClockTime = 1 s

deltaT = 0.5
Time = 43.831886s

DICPCG:  Solving for e, Initial residual = 0.0803869, Final residual = 0.00371077, No Iterations 4
DICPCG:  Solving for e, Initial residual = 0.0036983, Final residual = 0.000228932, No Iterations 4
DICPCG:  Solving for e, Initial residual = 0.000506403, Final residual = 6.8351e-07, No Iterations 8
ExecutionTime = 1.35702 s  ClockTime = 1 s

deltaT = 0.5
Time = 44.331886s

DICPCG:  Solving for e, Initial residual = 0.0803088, Final residual = 0.00370766, No Iterations 4
DICPCG:  Solving for e, Initial residual = 0.00369516, Final residual = 0.000228739, No Iterations 4
DICPCG:  Solving for e, Initial residual = 0.00050598, Final residual = 6.82975e-07, No Iterations 8
ExecutionTime = 1.36866 s  ClockTime = 1 s

deltaT = 0.5
Time = 44.831886s

DICPCG:  Solving for e, Initial residual = 0.0802335, Final residual = 0.00370467, No Iterations 4
DICPCG:  Solving for e, Initial residual = 0.00369214, Final residual = 0.000228554, No Iterations 4
DICPCG:  Solving for e, Initial residual = 0.000505572, Final residual = 6.8246e-07, No Iterations 8
ExecutionTime = 1.39532 s  ClockTime = 1 s

deltaT = 0.5
Time = 45.331886s

DICPCG:  Solving for e, Initial residual = 0.0801609, Final residual = 0.00370179, No Iterations 4
DICPCG:  Solving for e, Initial residual = 0.00368923, Final residual = 0.000228376, No Iterations 4
DICPCG:  Solving for e, Initial residual = 0.00050518, Final residual = 6.81964e-07, No Iterations 8
ExecutionTime = 1.40702 s  ClockTime = 1 s

deltaT = 0.5
Time = 45.831886s

DICPCG:  Solving for e, Initial residual = 0.0800908, Final residual = 0.00369901, No Iterations 4
DICPCG:  Solving for e, Initial residual = 0.00368644, Final residual = 0.000228205, No Iterations 4
DICPCG:  Solving for e, Initial residual = 0.000504803, Final residual = 6.81487e-07, No Iterations 8
ExecutionTime = 1.41872 s  ClockTime = 1 s

deltaT = 0.5
Time = 46.331886s

DICPCG:  Solving for e, Initial residual = 0.0800232, Final residual = 0.00369633, No Iterations 4
DICPCG:  Solving for e, Initial residual = 0.00368375, Final residual = 0.000228041, No Iterations 4
DICPCG:  Solving for e, Initial residual = 0.000504439, Final residual = 6.81027e-07, No Iterations 8
ExecutionTime = 1.43026 s  ClockTime = 1 s

deltaT = 0.5
Time = 46.831886s

DICPCG:  Solving for e, Initial residual = 0.0799579, Final residual = 0.00369375, No Iterations 4
DICPCG:  Solving for e, Initial residual = 0.00368116, Final residual = 0.000227883, No Iterations 4
DICPCG:  Solving for e, Initial residual = 0.000504089, Final residual = 6.80585e-07, No Iterations 8
ExecutionTime = 1.44194 s  ClockTime = 1 s

deltaT = 0.5
Time = 47.331886s

DICPCG:  Solving for e, Initial residual = 0.0798949, Final residual = 0.00369126, No Iterations 4
DICPCG:  Solving for e, Initial residual = 0.00367866, Final residual = 0.000227731, No Iterations 4
DICPCG:  Solving for e, Initial residual = 0.000503752, Final residual = 6.80159e-07, No Iterations 8
ExecutionTime = 1.45351 s  ClockTime = 1 s

deltaT = 0.5
Time = 47.831886s

DICPCG:  Solving for e, Initial residual = 0.0798341, Final residual = 0.00368885, No Iterations 4
DICPCG:  Solving for e, Initial residual = 0.00367625, Final residual = 0.000227585, No Iterations 4
DICPCG:  Solving for e, Initial residual = 0.000503426, Final residual = 6.79748e-07, No Iterations 8
ExecutionTime = 1.46518 s  ClockTime = 1 s

deltaT = 0.5
Time = 48.331886s

DICPCG:  Solving for e, Initial residual = 0.0797754, Final residual = 0.00368654, No Iterations 4
DICPCG:  Solving for e, Initial residual = 0.00367392, Final residual = 0.000227444, No Iterations 4
DICPCG:  Solving for e, Initial residual = 0.000503113, Final residual = 6.79352e-07, No Iterations 8
ExecutionTime = 1.47682 s  ClockTime = 1 s

deltaT = 0.5
Time = 48.831886s

DICPCG:  Solving for e, Initial residual = 0.0797188, Final residual = 0.00368431, No Iterations 4
DICPCG:  Solving for e, Initial residual = 0.00367168, Final residual = 0.000227308, No Iterations 4
DICPCG:  Solving for e, Initial residual = 0.000502811, Final residual = 6.7897e-07, No Iterations 8
ExecutionTime = 1.48857 s  ClockTime = 1 s

deltaT = 0.5
Time = 49.331886s

DICPCG:  Solving for e, Initial residual = 0.0796641, Final residual = 0.00368216, No Iterations 4
DICPCG:  Solving for e, Initial residual = 0.00366951, Final residual = 0.000227177, No Iterations 4
DICPCG:  Solving for e, Initial residual = 0.00050252, Final residual = 6.78602e-07, No Iterations 8
ExecutionTime = 1.50006 s  ClockTime = 2 s

deltaT = 0.5
Time = 49.831886s

DICPCG:  Solving for e, Initial residual = 0.0796113, Final residual = 0.00368008, No Iterations 4
DICPCG:  Solving for e, Initial residual = 0.00366743, Final residual = 0.00022705, No Iterations 4
DICPCG:  Solving for e, Initial residual = 0.000502239, Final residual = 6.78246e-07, No Iterations 8
ExecutionTime = 1.52667 s  ClockTime = 2 s

deltaT = 0.5
Time = 50.331886s

DICPCG:  Solving for e, Initial residual = 0.0795602, Final residual = 0.00367807, No Iterations 4
DICPCG:  Solving for e, Initial residual = 0.00366542, Final residual = 0.000226929, No Iterations 4
DICPCG:  Solving for e, Initial residual = 0.000501969, Final residual = 6.77904e-07, No Iterations 8
ExecutionTime = 1.53826 s  ClockTime = 2 s

deltaT = 0.5
Time = 50.831886s

DICPCG:  Solving for e, Initial residual = 0.0795109, Final residual = 0.00367614, No Iterations 4
DICPCG:  Solving for e, Initial residual = 0.00366348, Final residual = 0.000226812, No Iterations 4
DICPCG:  Solving for e, Initial residual = 0.000501708, Final residual = 6.77575e-07, No Iterations 8
ExecutionTime = 1.54993 s  ClockTime = 2 s

deltaT = 0.5
Time = 51.331886s

DICPCG:  Solving for e, Initial residual = 0.0794634, Final residual = 0.00367427, No Iterations 4
DICPCG:  Solving for e, Initial residual = 0.00366161, Final residual = 0.000226699, No Iterations 4
DICPCG:  Solving for e, Initial residual = 0.000501457, Final residual = 6.77257e-07, No Iterations 8
ExecutionTime = 1.56141 s  ClockTime = 2 s

deltaT = 0.5
Time = 51.831886s

DICPCG:  Solving for e, Initial residual = 0.0794174, Final residual = 0.00367247, No Iterations 4
DICPCG:  Solving for e, Initial residual = 0.00365981, Final residual = 0.00022659, No Iterations 4
DICPCG:  Solving for e, Initial residual = 0.000501215, Final residual = 6.7695e-07, No Iterations 8
ExecutionTime = 1.57308 s  ClockTime = 2 s

deltaT = 0.5
Time = 52.331886s

DICPCG:  Solving for e, Initial residual = 0.079373, Final residual = 0.00367074, No Iterations 4
DICPCG:  Solving for e, Initial residual = 0.00365807, Final residual = 0.000226485, No Iterations 4
DICPCG:  Solving for e, Initial residual = 0.000500981, Final residual = 6.76655e-07, No Iterations 8
ExecutionTime = 1.58456 s  ClockTime = 2 s

deltaT = 0.5
Time = 52.831886s

DICPCG:  Solving for e, Initial residual = 0.0793301, Final residual = 0.00366906, No Iterations 4
DICPCG:  Solving for e, Initial residual = 0.00365639, Final residual = 0.000226384, No Iterations 4
DICPCG:  Solving for e, Initial residual = 0.000500756, Final residual = 6.7637e-07, No Iterations 8
ExecutionTime = 1.59624 s  ClockTime = 2 s

deltaT = 0.5
Time = 53.331886s

DICPCG:  Solving for e, Initial residual = 0.0792887, Final residual = 0.00366744, No Iterations 4
DICPCG:  Solving for e, Initial residual = 0.00365477, Final residual = 0.000226287, No Iterations 4
DICPCG:  Solving for e, Initial residual = 0.000500538, Final residual = 6.76094e-07, No Iterations 8
ExecutionTime = 1.60777 s  ClockTime = 2 s

deltaT = 0.5
Time = 53.831886s

DICPCG:  Solving for e, Initial residual = 0.0792486, Final residual = 0.00366588, No Iterations 4
DICPCG:  Solving for e, Initial residual = 0.00365321, Final residual = 0.000226193, No Iterations 4
DICPCG:  Solving for e, Initial residual = 0.000500328, Final residual = 6.75828e-07, No Iterations 8
ExecutionTime = 1.61949 s  ClockTime = 2 s

deltaT = 0.5
Time = 54.331886s

DICPCG:  Solving for e, Initial residual = 0.0792099, Final residual = 0.00366437, No Iterations 4
DICPCG:  Solving for e, Initial residual = 0.0036517, Final residual = 0.000226102, No Iterations 4
DICPCG:  Solving for e, Initial residual = 0.000500125, Final residual = 6.75571e-07, No Iterations 8
ExecutionTime = 1.63143 s  ClockTime = 2 s

deltaT = 0.5
Time = 54.831886s

DICPCG:  Solving for e, Initial residual = 0.0791725, Final residual = 0.00366291, No Iterations 4
DICPCG:  Solving for e, Initial residual = 0.00365024, Final residual = 0.000226015, No Iterations 4
DICPCG:  Solving for e, Initial residual = 0.000499929, Final residual = 6.75323e-07, No Iterations 8
ExecutionTime = 1.66069 s  ClockTime = 2 s

deltaT = 0.5
Time = 55.331886s

DICPCG:  Solving for e, Initial residual = 0.0791364, Final residual = 0.00366151, No Iterations 4
DICPCG:  Solving for e, Initial residual = 0.00364884, Final residual = 0.00022593, No Iterations 4
DICPCG:  Solving for e, Initial residual = 0.000499741, Final residual = 6.75084e-07, No Iterations 8
ExecutionTime = 1.67249 s  ClockTime = 2 s

deltaT = 0.5
Time = 55.831886s

DICPCG:  Solving for e, Initial residual = 0.0791016, Final residual = 0.00366015, No Iterations 4
DICPCG:  Solving for e, Initial residual = 0.00364748, Final residual = 0.000225849, No Iterations 4
DICPCG:  Solving for e, Initial residual = 0.000499559, Final residual = 6.74853e-07, No Iterations 8
ExecutionTime = 1.68426 s  ClockTime = 2 s

deltaT = 0.5
Time = 56.331886s

DICPCG:  Solving for e, Initial residual = 0.0790679, Final residual = 0.00365884, No Iterations 4
DICPCG:  Solving for e, Initial residual = 0.00364617, Final residual = 0.000225771, No Iterations 4
DICPCG:  Solving for e, Initial residual = 0.000499383, Final residual = 6.7463e-07, No Iterations 8
ExecutionTime = 1.69579 s  ClockTime = 2 s

deltaT = 0.5
Time = 56.831886s

DICPCG:  Solving for e, Initial residual = 0.0790353, Final residual = 0.00365757, No Iterations 4
DICPCG:  Solving for e, Initial residual = 0.00364491, Final residual = 0.000225695, No Iterations 4
DICPCG:  Solving for e, Initial residual = 0.000499214, Final residual = 6.74414e-07, No Iterations 8
ExecutionTime = 1.70752 s  ClockTime = 2 s

deltaT = 0.5
Time = 57.331886s

DICPCG:  Solving for e, Initial residual = 0.0790038, Final residual = 0.00365635, No Iterations 4
DICPCG:  Solving for e, Initial residual = 0.0036437, Final residual = 0.000225622, No Iterations 4
DICPCG:  Solving for e, Initial residual = 0.00049905, Final residual = 6.74207e-07, No Iterations 8
ExecutionTime = 1.72047 s  ClockTime = 2 s

deltaT = 0.5
Time = 57.831886s

DICPCG:  Solving for e, Initial residual = 0.0789734, Final residual = 0.00365517, No Iterations 4
DICPCG:  Solving for e, Initial residual = 0.00364252, Final residual = 0.000225552, No Iterations 4
DICPCG:  Solving for e, Initial residual = 0.000498892, Final residual = 6.74007e-07, No Iterations 8
ExecutionTime = 1.73222 s  ClockTime = 2 s

deltaT = 0.5
Time = 58.331886s

DICPCG:  Solving for e, Initial residual = 0.078944, Final residual = 0.00365404, No Iterations 4
DICPCG:  Solving for e, Initial residual = 0.00364139, Final residual = 0.000225484, No Iterations 4
DICPCG:  Solving for e, Initial residual = 0.00049874, Final residual = 6.73815e-07, No Iterations 8
ExecutionTime = 1.74376 s  ClockTime = 2 s

deltaT = 0.5
Time = 58.831886s

DICPCG:  Solving for e, Initial residual = 0.0789156, Final residual = 0.00365294, No Iterations 4
DICPCG:  Solving for e, Initial residual = 0.00364029, Final residual = 0.000225419, No Iterations 4
DICPCG:  Solving for e, Initial residual = 0.000498593, Final residual = 6.73629e-07, No Iterations 8
ExecutionTime = 1.75547 s  ClockTime = 2 s

deltaT = 0.5
Time = 59.331886s

DICPCG:  Solving for e, Initial residual = 0.0788882, Final residual = 0.00365188, No Iterations 4
DICPCG:  Solving for e, Initial residual = 0.00363923, Final residual = 0.000225356, No Iterations 4
DICPCG:  Solving for e, Initial residual = 0.000498452, Final residual = 6.7345e-07, No Iterations 8
ExecutionTime = 1.76698 s  ClockTime = 2 s

deltaT = 0.5
Time = 59.831886s

DICPCG:  Solving for e, Initial residual = 0.0788617, Final residual = 0.00365085, No Iterations 4
DICPCG:  Solving for e, Initial residual = 0.00363821, Final residual = 0.000225295, No Iterations 4
DICPCG:  Solving for e, Initial residual = 0.000498315, Final residual = 6.73277e-07, No Iterations 8
ExecutionTime = 1.79357 s  ClockTime = 2 s

deltaT = 0.5
Time = 60.331886s

DICPCG:  Solving for e, Initial residual = 0.078836, Final residual = 0.00364986, No Iterations 4
DICPCG:  Solving for e, Initial residual = 0.00363723, Final residual = 0.000225236, No Iterations 4
DICPCG:  Solving for e, Initial residual = 0.000498183, Final residual = 6.7311e-07, No Iterations 8
ExecutionTime = 1.80523 s  ClockTime = 2 s

deltaT = 0.5
Time = 60.831886s

DICPCG:  Solving for e, Initial residual = 0.0788111, Final residual = 0.0036489, No Iterations 4
DICPCG:  Solving for e, Initial residual = 0.00363628, Final residual = 0.000225179, No Iterations 4
DICPCG:  Solving for e, Initial residual = 0.000498055, Final residual = 6.72949e-07, No Iterations 8
ExecutionTime = 1.81694 s  ClockTime = 2 s

deltaT = 0.5
Time = 61.331886s

DICPCG:  Solving for e, Initial residual = 0.0787871, Final residual = 0.00364797, No Iterations 4
DICPCG:  Solving for e, Initial residual = 0.00363536, Final residual = 0.000225125, No Iterations 4
DICPCG:  Solving for e, Initial residual = 0.000497932, Final residual = 6.72793e-07, No Iterations 8
ExecutionTime = 1.82861 s  ClockTime = 2 s

deltaT = 0.5
Time = 61.831886s

DICPCG:  Solving for e, Initial residual = 0.0787639, Final residual = 0.00364708, No Iterations 4
DICPCG:  Solving for e, Initial residual = 0.00363447, Final residual = 0.000225072, No Iterations 4
DICPCG:  Solving for e, Initial residual = 0.000497813, Final residual = 6.72643e-07, No Iterations 8
ExecutionTime = 1.84126 s  ClockTime = 2 s

deltaT = 0.5
Time = 62.331886s

DICPCG:  Solving for e, Initial residual = 0.0787415, Final residual = 0.00364622, No Iterations 4
DICPCG:  Solving for e, Initial residual = 0.00363362, Final residual = 0.000225021, No Iterations 4
DICPCG:  Solving for e, Initial residual = 0.000497698, Final residual = 6.72498e-07, No Iterations 8
ExecutionTime = 1.85364 s  ClockTime = 2 s

deltaT = 0.5
Time = 62.831886s

DICPCG:  Solving for e, Initial residual = 0.0787199, Final residual = 0.00364538, No Iterations 4
DICPCG:  Solving for e, Initial residual = 0.00363279, Final residual = 0.000224972, No Iterations 4
DICPCG:  Solving for e, Initial residual = 0.000497588, Final residual = 6.72358e-07, No Iterations 8
ExecutionTime = 1.8662 s  ClockTime = 2 s

deltaT = 0.5
Time = 63.331886s

DICPCG:  Solving for e, Initial residual = 0.0786989, Final residual = 0.00364458, No Iterations 4
DICPCG:  Solving for e, Initial residual = 0.00363199, Final residual = 0.000224924, No Iterations 4
DICPCG:  Solving for e, Initial residual = 0.000497481, Final residual = 6.72224e-07, No Iterations 8
ExecutionTime = 1.87856 s  ClockTime = 2 s

deltaT = 0.5
Time = 63.831886s

DICPCG:  Solving for e, Initial residual = 0.0786786, Final residual = 0.0036438, No Iterations 4
DICPCG:  Solving for e, Initial residual = 0.00363122, Final residual = 0.000224878, No Iterations 4
DICPCG:  Solving for e, Initial residual = 0.000497378, Final residual = 6.72094e-07, No Iterations 8
ExecutionTime = 1.89107 s  ClockTime = 2 s

deltaT = 0.5
Time = 64.331886s

DICPCG:  Solving for e, Initial residual = 0.078659, Final residual = 0.00364304, No Iterations 4
DICPCG:  Solving for e, Initial residual = 0.00363047, Final residual = 0.000224834, No Iterations 4
DICPCG:  Solving for e, Initial residual = 0.000497278, Final residual = 6.71968e-07, No Iterations 8
ExecutionTime = 1.90342 s  ClockTime = 2 s

deltaT = 0.5
Time = 64.831886s

DICPCG:  Solving for e, Initial residual = 0.07864, Final residual = 0.00364231, No Iterations 4
DICPCG:  Solving for e, Initial residual = 0.00362975, Final residual = 0.000224791, No Iterations 4
DICPCG:  Solving for e, Initial residual = 0.000497183, Final residual = 6.71847e-07, No Iterations 8
ExecutionTime = 1.93203 s  ClockTime = 2 s

deltaT = 0.5
Time = 65.331886s

DICPCG:  Solving for e, Initial residual = 0.0786217, Final residual = 0.00364161, No Iterations 4
DICPCG:  Solving for e, Initial residual = 0.00362906, Final residual = 0.00022475, No Iterations 4
DICPCG:  Solving for e, Initial residual = 0.00049709, Final residual = 6.7173e-07, No Iterations 8
ExecutionTime = 1.94445 s  ClockTime = 2 s

deltaT = 0.5
Time = 65.831886s

DICPCG:  Solving for e, Initial residual = 0.0786039, Final residual = 0.00364093, No Iterations 4
DICPCG:  Solving for e, Initial residual = 0.00362839, Final residual = 0.00022471, No Iterations 4
DICPCG:  Solving for e, Initial residual = 0.000497001, Final residual = 6.71617e-07, No Iterations 8
ExecutionTime = 1.95697 s  ClockTime = 2 s

deltaT = 0.5
Time = 66.331886s

DICPCG:  Solving for e, Initial residual = 0.0785868, Final residual = 0.00364028, No Iterations 4
DICPCG:  Solving for e, Initial residual = 0.00362774, Final residual = 0.000224672, No Iterations 4
DICPCG:  Solving for e, Initial residual = 0.000496915, Final residual = 6.71509e-07, No Iterations 8
ExecutionTime = 1.96934 s  ClockTime = 2 s

deltaT = 0.5
Time = 66.831886s

DICPCG:  Solving for e, Initial residual = 0.0785702, Final residual = 0.00363964, No Iterations 4
DICPCG:  Solving for e, Initial residual = 0.00362712, Final residual = 0.000224635, No Iterations 4
DICPCG:  Solving for e, Initial residual = 0.000496832, Final residual = 6.71404e-07, No Iterations 8
ExecutionTime = 1.98189 s  ClockTime = 2 s

deltaT = 0.5
Time = 67.331886s

DICPCG:  Solving for e, Initial residual = 0.0785542, Final residual = 0.00363903, No Iterations 4
DICPCG:  Solving for e, Initial residual = 0.00362651, Final residual = 0.000224599, No Iterations 4
DICPCG:  Solving for e, Initial residual = 0.000496751, Final residual = 6.71302e-07, No Iterations 8
ExecutionTime = 1.99426 s  ClockTime = 2 s

deltaT = 0.5
Time = 67.831886s

DICPCG:  Solving for e, Initial residual = 0.0785387, Final residual = 0.00363844, No Iterations 4
DICPCG:  Solving for e, Initial residual = 0.00362593, Final residual = 0.000224564, No Iterations 4
DICPCG:  Solving for e, Initial residual = 0.000496674, Final residual = 6.71204e-07, No Iterations 8
ExecutionTime = 2.00679 s  ClockTime = 2 s

deltaT = 0.5
Time = 68.331886s

DICPCG:  Solving for e, Initial residual = 0.0785237, Final residual = 0.00363786, No Iterations 4
DICPCG:  Solving for e, Initial residual = 0.00362537, Final residual = 0.000224531, No Iterations 4
DICPCG:  Solving for e, Initial residual = 0.000496599, Final residual = 6.7111e-07, No Iterations 8
ExecutionTime = 2.01912 s  ClockTime = 2 s

deltaT = 0.5
Time = 68.831886s

DICPCG:  Solving for e, Initial residual = 0.0785092, Final residual = 0.00363731, No Iterations 4
DICPCG:  Solving for e, Initial residual = 0.00362482, Final residual = 0.000224499, No Iterations 4
DICPCG:  Solving for e, Initial residual = 0.000496527, Final residual = 6.71018e-07, No Iterations 8
ExecutionTime = 2.0317 s  ClockTime = 2 s

deltaT = 0.5
Time = 69.331886s

DICPCG:  Solving for e, Initial residual = 0.0784952, Final residual = 0.00363678, No Iterations 4
DICPCG:  Solving for e, Initial residual = 0.0036243, Final residual = 0.000224468, No Iterations 4
DICPCG:  Solving for e, Initial residual = 0.000496457, Final residual = 6.7093e-07, No Iterations 8
ExecutionTime = 2.04404 s  ClockTime = 2 s

deltaT = 0.5
Time = 69.831886s

DICPCG:  Solving for e, Initial residual = 0.0784817, Final residual = 0.00363626, No Iterations 4
DICPCG:  Solving for e, Initial residual = 0.00362379, Final residual = 0.000224438, No Iterations 4
DICPCG:  Solving for e, Initial residual = 0.00049639, Final residual = 6.70846e-07, No Iterations 8
ExecutionTime = 2.07292 s  ClockTime = 2 s

deltaT = 0.5
Time = 70.331886s

DICPCG:  Solving for e, Initial residual = 0.0784686, Final residual = 0.00363577, No Iterations 4
DICPCG:  Solving for e, Initial residual = 0.0036233, Final residual = 0.000224409, No Iterations 4
DICPCG:  Solving for e, Initial residual = 0.000496325, Final residual = 6.70764e-07, No Iterations 8
ExecutionTime = 2.08542 s  ClockTime = 2 s

deltaT = 0.5
Time = 70.831886s

DICPCG:  Solving for e, Initial residual = 0.0784559, Final residual = 0.00363528, No Iterations 4
DICPCG:  Solving for e, Initial residual = 0.00362282, Final residual = 0.000224381, No Iterations 4
DICPCG:  Solving for e, Initial residual = 0.000496262, Final residual = 6.70684e-07, No Iterations 8
ExecutionTime = 2.09803 s  ClockTime = 2 s

deltaT = 0.5
Time = 71.331886s

DICPCG:  Solving for e, Initial residual = 0.0784437, Final residual = 0.00363482, No Iterations 4
DICPCG:  Solving for e, Initial residual = 0.00362237, Final residual = 0.000224354, No Iterations 4
DICPCG:  Solving for e, Initial residual = 0.000496202, Final residual = 6.70608e-07, No Iterations 8
ExecutionTime = 2.11044 s  ClockTime = 2 s

deltaT = 0.5
Time = 71.831886s

DICPCG:  Solving for e, Initial residual = 0.0784319, Final residual = 0.00363437, No Iterations 4
DICPCG:  Solving for e, Initial residual = 0.00362193, Final residual = 0.000224328, No Iterations 4
DICPCG:  Solving for e, Initial residual = 0.000496144, Final residual = 6.70535e-07, No Iterations 8
ExecutionTime = 2.12301 s  ClockTime = 2 s

deltaT = 0.5
Time = 72.331886s

DICPCG:  Solving for e, Initial residual = 0.0784204, Final residual = 0.00363394, No Iterations 4
DICPCG:  Solving for e, Initial residual = 0.0036215, Final residual = 0.000224303, No Iterations 4
DICPCG:  Solving for e, Initial residual = 0.000496087, Final residual = 6.70463e-07, No Iterations 8
ExecutionTime = 2.13635 s  ClockTime = 2 s

deltaT = 0.5
Time = 72.831886s

DICPCG:  Solving for e, Initial residual = 0.0784094, Final residual = 0.00363352, No Iterations 4
DICPCG:  Solving for e, Initial residual = 0.00362109, Final residual = 0.000224279, No Iterations 4
DICPCG:  Solving for e, Initial residual = 0.000496033, Final residual = 6.70395e-07, No Iterations 8
ExecutionTime = 2.14934 s  ClockTime = 2 s

deltaT = 0.5
Time = 73.331886s

DICPCG:  Solving for e, Initial residual = 0.0783987, Final residual = 0.00363311, No Iterations 4
DICPCG:  Solving for e, Initial residual = 0.00362069, Final residual = 0.000224255, No Iterations 4
DICPCG:  Solving for e, Initial residual = 0.000495981, Final residual = 6.70329e-07, No Iterations 8
ExecutionTime = 2.16182 s  ClockTime = 2 s

deltaT = 0.5
Time = 73.831886s

DICPCG:  Solving for e, Initial residual = 0.0783883, Final residual = 0.00363272, No Iterations 4
DICPCG:  Solving for e, Initial residual = 0.0036203, Final residual = 0.000224232, No Iterations 4
DICPCG:  Solving for e, Initial residual = 0.00049593, Final residual = 6.70265e-07, No Iterations 8
ExecutionTime = 2.17443 s  ClockTime = 2 s

deltaT = 0.5
Time = 74.331886s

DICPCG:  Solving for e, Initial residual = 0.0783783, Final residual = 0.00363234, No Iterations 4
DICPCG:  Solving for e, Initial residual = 0.00361993, Final residual = 0.000224211, No Iterations 4
DICPCG:  Solving for e, Initial residual = 0.000495881, Final residual = 6.70203e-07, No Iterations 8
ExecutionTime = 2.18682 s  ClockTime = 2 s

deltaT = 0.5
Time = 74.831886s

DICPCG:  Solving for e, Initial residual = 0.0783687, Final residual = 0.00363198, No Iterations 4
DICPCG:  Solving for e, Initial residual = 0.00361957, Final residual = 0.000224189, No Iterations 4
DICPCG:  Solving for e, Initial residual = 0.000495834, Final residual = 6.70143e-07, No Iterations 8
ExecutionTime = 2.21539 s  ClockTime = 2 s

deltaT = 0.5
Time = 75.331886s

DICPCG:  Solving for e, Initial residual = 0.0783593, Final residual = 0.00363162, No Iterations 4
DICPCG:  Solving for e, Initial residual = 0.00361923, Final residual = 0.000224169, No Iterations 4
DICPCG:  Solving for e, Initial residual = 0.000495788, Final residual = 6.70085e-07, No Iterations 8
ExecutionTime = 2.22809 s  ClockTime = 2 s

deltaT = 0.5
Time = 75.831886s

DICPCG:  Solving for e, Initial residual = 0.0783503, Final residual = 0.00363128, No Iterations 4
DICPCG:  Solving for e, Initial residual = 0.00361889, Final residual = 0.000224149, No Iterations 4
DICPCG:  Solving for e, Initial residual = 0.000495744, Final residual = 6.7003e-07, No Iterations 8
ExecutionTime = 2.24083 s  ClockTime = 2 s

deltaT = 0.5
Time = 76.331886s

DICPCG:  Solving for e, Initial residual = 0.0783415, Final residual = 0.00363095, No Iterations 4
DICPCG:  Solving for e, Initial residual = 0.00361857, Final residual = 0.00022413, No Iterations 4
DICPCG:  Solving for e, Initial residual = 0.000495702, Final residual = 6.69976e-07, No Iterations 8
ExecutionTime = 2.2532 s  ClockTime = 2 s

deltaT = 0.5
Time = 76.831886s

DICPCG:  Solving for e, Initial residual = 0.0783331, Final residual = 0.00363063, No Iterations 4
DICPCG:  Solving for e, Initial residual = 0.00361825, Final residual = 0.000224112, No Iterations 4
DICPCG:  Solving for e, Initial residual = 0.000495661, Final residual = 6.69924e-07, No Iterations 8
ExecutionTime = 2.26577 s  ClockTime = 2 s

deltaT = 0.5
Time = 77.331886s

DICPCG:  Solving for e, Initial residual = 0.0783249, Final residual = 0.00363033, No Iterations 4
DICPCG:  Solving for e, Initial residual = 0.00361795, Final residual = 0.000224094, No Iterations 4
DICPCG:  Solving for e, Initial residual = 0.000495621, Final residual = 6.69874e-07, No Iterations 8
ExecutionTime = 2.27813 s  ClockTime = 2 s

deltaT = 0.5
Time = 77.831886s

DICPCG:  Solving for e, Initial residual = 0.078317, Final residual = 0.00363003, No Iterations 4
DICPCG:  Solving for e, Initial residual = 0.00361766, Final residual = 0.000224077, No Iterations 4
DICPCG:  Solving for e, Initial residual = 0.000495583, Final residual = 6.69825e-07, No Iterations 8
ExecutionTime = 2.29072 s  ClockTime = 2 s

deltaT = 0.5
Time = 78.331886s

DICPCG:  Solving for e, Initial residual = 0.0783093, Final residual = 0.00362974, No Iterations 4
DICPCG:  Solving for e, Initial residual = 0.00361738, Final residual = 0.000224061, No Iterations 4
DICPCG:  Solving for e, Initial residual = 0.000495546, Final residual = 6.69778e-07, No Iterations 8
ExecutionTime = 2.30313 s  ClockTime = 2 s

deltaT = 0.5
Time = 78.831886s

DICPCG:  Solving for e, Initial residual = 0.0783019, Final residual = 0.00362946, No Iterations 4
DICPCG:  Solving for e, Initial residual = 0.0036171, Final residual = 0.000224045, No Iterations 4
DICPCG:  Solving for e, Initial residual = 0.000495511, Final residual = 6.69733e-07, No Iterations 8
ExecutionTime = 2.31572 s  ClockTime = 2 s

deltaT = 0.5
Time = 79.331886s

DICPCG:  Solving for e, Initial residual = 0.0782947, Final residual = 0.00362919, No Iterations 4
DICPCG:  Solving for e, Initial residual = 0.00361684, Final residual = 0.000224029, No Iterations 4
DICPCG:  Solving for e, Initial residual = 0.000495476, Final residual = 6.6969e-07, No Iterations 8
ExecutionTime = 2.32804 s  ClockTime = 2 s

deltaT = 0.5
Time = 79.831886s

DICPCG:  Solving for e, Initial residual = 0.0782878, Final residual = 0.00362893, No Iterations 4
DICPCG:  Solving for e, Initial residual = 0.00361659, Final residual = 0.000224014, No Iterations 4
DICPCG:  Solving for e, Initial residual = 0.000495443, Final residual = 6.69648e-07, No Iterations 8
ExecutionTime = 2.35644 s  ClockTime = 2 s

deltaT = 0.5
Time = 80.331886s

DICPCG:  Solving for e, Initial residual = 0.0782811, Final residual = 0.00362868, No Iterations 4
DICPCG:  Solving for e, Initial residual = 0.00361634, Final residual = 0.000224, No Iterations 4
DICPCG:  Solving for e, Initial residual = 0.000495411, Final residual = 6.69607e-07, No Iterations 8
ExecutionTime = 2.36887 s  ClockTime = 2 s

deltaT = 0.5
Time = 80.831886s

DICPCG:  Solving for e, Initial residual = 0.0782747, Final residual = 0.00362844, No Iterations 4
DICPCG:  Solving for e, Initial residual = 0.0036161, Final residual = 0.000223986, No Iterations 4
DICPCG:  Solving for e, Initial residual = 0.00049538, Final residual = 6.69568e-07, No Iterations 8
ExecutionTime = 2.38156 s  ClockTime = 2 s

deltaT = 0.5
Time = 81.331886s

DICPCG:  Solving for e, Initial residual = 0.0782684, Final residual = 0.0036282, No Iterations 4
DICPCG:  Solving for e, Initial residual = 0.00361588, Final residual = 0.000223973, No Iterations 4
DICPCG:  Solving for e, Initial residual = 0.00049535, Final residual = 6.6953e-07, No Iterations 8
ExecutionTime = 2.39395 s  ClockTime = 2 s

deltaT = 0.5
Time = 81.831886s

DICPCG:  Solving for e, Initial residual = 0.0782623, Final residual = 0.00362798, No Iterations 4
DICPCG:  Solving for e, Initial residual = 0.00361565, Final residual = 0.00022396, No Iterations 4
DICPCG:  Solving for e, Initial residual = 0.000495321, Final residual = 6.69493e-07, No Iterations 8
ExecutionTime = 2.40667 s  ClockTime = 2 s

deltaT = 0.5
Time = 82.331886s

DICPCG:  Solving for e, Initial residual = 0.0782565, Final residual = 0.00362776, No Iterations 4
DICPCG:  Solving for e, Initial residual = 0.00361544, Final residual = 0.000223947, No Iterations 4
DICPCG:  Solving for e, Initial residual = 0.000495293, Final residual = 6.69458e-07, No Iterations 8
ExecutionTime = 2.419 s  ClockTime = 2 s

deltaT = 0.5
Time = 82.831886s

DICPCG:  Solving for e, Initial residual = 0.0782508, Final residual = 0.00362755, No Iterations 4
DICPCG:  Solving for e, Initial residual = 0.00361523, Final residual = 0.000223935, No Iterations 4
DICPCG:  Solving for e, Initial residual = 0.000495266, Final residual = 6.69423e-07, No Iterations 8
ExecutionTime = 2.43152 s  ClockTime = 2 s

deltaT = 0.5
Time = 83.331886s

DICPCG:  Solving for e, Initial residual = 0.0782453, Final residual = 0.00362734, No Iterations 4
DICPCG:  Solving for e, Initial residual = 0.00361503, Final residual = 0.000223923, No Iterations 4
DICPCG:  Solving for e, Initial residual = 0.00049524, Final residual = 6.6939e-07, No Iterations 8
ExecutionTime = 2.44382 s  ClockTime = 2 s

deltaT = 0.5
Time = 83.831886s

DICPCG:  Solving for e, Initial residual = 0.07824, Final residual = 0.00362714, No Iterations 4
DICPCG:  Solving for e, Initial residual = 0.00361484, Final residual = 0.000223912, No Iterations 4
DICPCG:  Solving for e, Initial residual = 0.000495215, Final residual = 6.69358e-07, No Iterations 8
ExecutionTime = 2.45639 s  ClockTime = 2 s

deltaT = 0.5
Time = 84.331886s

DICPCG:  Solving for e, Initial residual = 0.0782349, Final residual = 0.00362695, No Iterations 4
DICPCG:  Solving for e, Initial residual = 0.00361465, Final residual = 0.000223901, No Iterations 4
DICPCG:  Solving for e, Initial residual = 0.000495191, Final residual = 6.69328e-07, No Iterations 8
ExecutionTime = 2.46877 s  ClockTime = 2 s

deltaT = 0.5
Time = 84.831886s

DICPCG:  Solving for e, Initial residual = 0.07823, Final residual = 0.00362677, No Iterations 4
DICPCG:  Solving for e, Initial residual = 0.00361447, Final residual = 0.000223891, No Iterations 4
DICPCG:  Solving for e, Initial residual = 0.000495167, Final residual = 6.69298e-07, No Iterations 8
ExecutionTime = 2.49742 s  ClockTime = 3 s

deltaT = 0.5
Time = 85.331886s

DICPCG:  Solving for e, Initial residual = 0.0782252, Final residual = 0.00362659, No Iterations 4
DICPCG:  Solving for e, Initial residual = 0.0036143, Final residual = 0.000223881, No Iterations 4
DICPCG:  Solving for e, Initial residual = 0.000495145, Final residual = 6.69269e-07, No Iterations 8
ExecutionTime = 2.50983 s  ClockTime = 3 s

deltaT = 0.5
Time = 85.831886s

DICPCG:  Solving for e, Initial residual = 0.0782205, Final residual = 0.00362642, No Iterations 4
DICPCG:  Solving for e, Initial residual = 0.00361413, Final residual = 0.000223871, No Iterations 4
DICPCG:  Solving for e, Initial residual = 0.000495123, Final residual = 6.69241e-07, No Iterations 8
ExecutionTime = 2.52237 s  ClockTime = 3 s

deltaT = 0.5
Time = 86.331886s

DICPCG:  Solving for e, Initial residual = 0.078216, Final residual = 0.00362625, No Iterations 4
DICPCG:  Solving for e, Initial residual = 0.00361397, Final residual = 0.000223861, No Iterations 4
DICPCG:  Solving for e, Initial residual = 0.000495102, Final residual = 6.69214e-07, No Iterations 8
ExecutionTime = 2.53469 s  ClockTime = 3 s

deltaT = 0.5
Time = 86.831886s

DICPCG:  Solving for e, Initial residual = 0.0782117, Final residual = 0.00362609, No Iterations 4
DICPCG:  Solving for e, Initial residual = 0.00361381, Final residual = 0.000223852, No Iterations 4
DICPCG:  Solving for e, Initial residual = 0.000495082, Final residual = 6.69188e-07, No Iterations 8
ExecutionTime = 2.54721 s  ClockTime = 3 s

deltaT = 0.5
Time = 87.331886s

DICPCG:  Solving for e, Initial residual = 0.0782075, Final residual = 0.00362593, No Iterations 4
DICPCG:  Solving for e, Initial residual = 0.00361366, Final residual = 0.000223843, No Iterations 4
DICPCG:  Solving for e, Initial residual = 0.000495062, Final residual = 6.69163e-07, No Iterations 8
ExecutionTime = 2.5596 s  ClockTime = 3 s

deltaT = 0.5
Time = 87.831886s

DICPCG:  Solving for e, Initial residual = 0.0782034, Final residual = 0.00362578, No Iterations 4
DICPCG:  Solving for e, Initial residual = 0.00361351, Final residual = 0.000223835, No Iterations 4
DICPCG:  Solving for e, Initial residual = 0.000495043, Final residual = 6.69139e-07, No Iterations 8
ExecutionTime = 2.57213 s  ClockTime = 3 s

deltaT = 0.5
Time = 88.331886s

DICPCG:  Solving for e, Initial residual = 0.0781995, Final residual = 0.00362563, No Iterations 4
DICPCG:  Solving for e, Initial residual = 0.00361337, Final residual = 0.000223827, No Iterations 4
DICPCG:  Solving for e, Initial residual = 0.000495025, Final residual = 6.69116e-07, No Iterations 8
ExecutionTime = 2.58454 s  ClockTime = 3 s

deltaT = 0.5
Time = 88.831886s

DICPCG:  Solving for e, Initial residual = 0.0781957, Final residual = 0.00362549, No Iterations 4
DICPCG:  Solving for e, Initial residual = 0.00361324, Final residual = 0.000223819, No Iterations 4
DICPCG:  Solving for e, Initial residual = 0.000495007, Final residual = 6.69093e-07, No Iterations 8
ExecutionTime = 2.59721 s  ClockTime = 3 s

deltaT = 0.5
Time = 89.331886s

DICPCG:  Solving for e, Initial residual = 0.078192, Final residual = 0.00362536, No Iterations 4
DICPCG:  Solving for e, Initial residual = 0.0036131, Final residual = 0.000223811, No Iterations 4
DICPCG:  Solving for e, Initial residual = 0.00049499, Final residual = 6.69071e-07, No Iterations 8
ExecutionTime = 2.60959 s  ClockTime = 3 s

deltaT = 0.5
Time = 89.831886s

DICPCG:  Solving for e, Initial residual = 0.0781885, Final residual = 0.00362523, No Iterations 4
DICPCG:  Solving for e, Initial residual = 0.00361298, Final residual = 0.000223803, No Iterations 4
DICPCG:  Solving for e, Initial residual = 0.000494973, Final residual = 6.6905e-07, No Iterations 8
ExecutionTime = 2.63903 s  ClockTime = 3 s

deltaT = 0.5
Time = 90.331886s

DICPCG:  Solving for e, Initial residual = 0.0781851, Final residual = 0.0036251, No Iterations 4
DICPCG:  Solving for e, Initial residual = 0.00361285, Final residual = 0.000223796, No Iterations 4
DICPCG:  Solving for e, Initial residual = 0.000494957, Final residual = 6.6903e-07, No Iterations 8
ExecutionTime = 2.65202 s  ClockTime = 3 s

deltaT = 0.5
Time = 90.831886s

DICPCG:  Solving for e, Initial residual = 0.0781817, Final residual = 0.00362497, No Iterations 4
DICPCG:  Solving for e, Initial residual = 0.00361273, Final residual = 0.000223789, No Iterations 4
DICPCG:  Solving for e, Initial residual = 0.000494942, Final residual = 6.6901e-07, No Iterations 8
ExecutionTime = 2.66482 s  ClockTime = 3 s

deltaT = 0.5
Time = 91.331886s

DICPCG:  Solving for e, Initial residual = 0.0781785, Final residual = 0.00362486, No Iterations 4
DICPCG:  Solving for e, Initial residual = 0.00361262, Final residual = 0.000223783, No Iterations 4
DICPCG:  Solving for e, Initial residual = 0.000494927, Final residual = 6.68991e-07, No Iterations 8
ExecutionTime = 2.67743 s  ClockTime = 3 s

deltaT = 0.5
Time = 91.831886s

DICPCG:  Solving for e, Initial residual = 0.0781754, Final residual = 0.00362474, No Iterations 4
DICPCG:  Solving for e, Initial residual = 0.00361251, Final residual = 0.000223776, No Iterations 4
DICPCG:  Solving for e, Initial residual = 0.000494913, Final residual = 6.68973e-07, No Iterations 8
ExecutionTime = 2.69003 s  ClockTime = 3 s

deltaT = 0.5
Time = 92.331886s

DICPCG:  Solving for e, Initial residual = 0.0781724, Final residual = 0.00362463, No Iterations 4
DICPCG:  Solving for e, Initial residual = 0.0036124, Final residual = 0.00022377, No Iterations 4
DICPCG:  Solving for e, Initial residual = 0.000494899, Final residual = 6.68955e-07, No Iterations 8
ExecutionTime = 2.70236 s  ClockTime = 3 s

deltaT = 0.5
Time = 92.831886s

DICPCG:  Solving for e, Initial residual = 0.0781695, Final residual = 0.00362452, No Iterations 4
DICPCG:  Solving for e, Initial residual = 0.00361229, Final residual = 0.000223764, No Iterations 4
DICPCG:  Solving for e, Initial residual = 0.000494885, Final residual = 6.68938e-07, No Iterations 8
ExecutionTime = 2.71488 s  ClockTime = 3 s

deltaT = 0.5
Time = 93.331886s

DICPCG:  Solving for e, Initial residual = 0.0781667, Final residual = 0.00362442, No Iterations 4
DICPCG:  Solving for e, Initial residual = 0.00361219, Final residual = 0.000223758, No Iterations 4
DICPCG:  Solving for e, Initial residual = 0.000494872, Final residual = 6.68922e-07, No Iterations 8
[...]
DICPCG:  Solving for e, Initial residual = 0.000528587, Final residual = 7.00742e-07, No Iterations 8
ExecutionTime = 17.1583 s  ClockTime = 17 s

deltaT = 0.5
Time = 574.331886s

DICPCG:  Solving for e, Initial residual = 0.0838851, Final residual = 0.00384791, No Iterations 4
DICPCG:  Solving for e, Initial residual = 0.00391888, Final residual = 0.000231737, No Iterations 4
DICPCG:  Solving for e, Initial residual = 0.000528587, Final residual = 7.00742e-07, No Iterations 8
ExecutionTime = 17.1717 s  ClockTime = 17 s

deltaT = 0.5
Time = 574.831886s

DICPCG:  Solving for e, Initial residual = 0.0838851, Final residual = 0.00384791, No Iterations 4
DICPCG:  Solving for e, Initial residual = 0.00391888, Final residual = 0.000231737, No Iterations 4
DICPCG:  Solving for e, Initial residual = 0.000528587, Final residual = 7.00742e-07, No Iterations 8
ExecutionTime = 17.202 s  ClockTime = 17 s

deltaT = 0.5
Time = 575.331886s

DICPCG:  Solving for e, Initial residual = 0.0838851, Final residual = 0.00384791, No Iterations 4
DICPCG:  Solving for e, Initial residual = 0.00391888, Final residual = 0.000231737, No Iterations 4
DICPCG:  Solving for e, Initial residual = 0.000528587, Final residual = 7.00742e-07, No Iterations 8
ExecutionTime = 17.2156 s  ClockTime = 17 s

deltaT = 0.5
Time = 575.831886s

DICPCG:  Solving for e, Initial residual = 0.0838851, Final residual = 0.00384791, No Iterations 4
DICPCG:  Solving for e, Initial residual = 0.00391888, Final residual = 0.000231737, No Iterations 4
DICPCG:  Solving for e, Initial residual = 0.000528587, Final residual = 7.00742e-07, No Iterations 8
ExecutionTime = 17.2291 s  ClockTime = 17 s

deltaT = 0.5
Time = 576.331886s

DICPCG:  Solving for e, Initial residual = 0.0838851, Final residual = 0.00384791, No Iterations 4
DICPCG:  Solving for e, Initial residual = 0.00391888, Final residual = 0.000231737, No Iterations 4
DICPCG:  Solving for e, Initial residual = 0.000528587, Final residual = 7.00742e-07, No Iterations 8
ExecutionTime = 17.2424 s  ClockTime = 17 s

deltaT = 0.5
Time = 576.831886s

DICPCG:  Solving for e, Initial residual = 0.0838851, Final residual = 0.00384791, No Iterations 4
DICPCG:  Solving for e, Initial residual = 0.00391888, Final residual = 0.000231737, No Iterations 4
DICPCG:  Solving for e, Initial residual = 0.000528587, Final residual = 7.00742e-07, No Iterations 8
ExecutionTime = 17.2559 s  ClockTime = 17 s

deltaT = 0.5
Time = 577.331886s

DICPCG:  Solving for e, Initial residual = 0.0838851, Final residual = 0.00384791, No Iterations 4
DICPCG:  Solving for e, Initial residual = 0.00391888, Final residual = 0.000231737, No Iterations 4
DICPCG:  Solving for e, Initial residual = 0.000528587, Final residual = 7.00742e-07, No Iterations 8
ExecutionTime = 17.2692 s  ClockTime = 17 s

deltaT = 0.5
Time = 577.831886s

DICPCG:  Solving for e, Initial residual = 0.0838851, Final residual = 0.00384791, No Iterations 4
DICPCG:  Solving for e, Initial residual = 0.00391888, Final residual = 0.000231737, No Iterations 4
DICPCG:  Solving for e, Initial residual = 0.000528587, Final residual = 7.00742e-07, No Iterations 8
ExecutionTime = 17.2827 s  ClockTime = 17 s

deltaT = 0.5
Time = 578.331886s

DICPCG:  Solving for e, Initial residual = 0.0838851, Final residual = 0.00384791, No Iterations 4
DICPCG:  Solving for e, Initial residual = 0.00391888, Final residual = 0.000231737, No Iterations 4
DICPCG:  Solving for e, Initial residual = 0.000528587, Final residual = 7.00742e-07, No Iterations 8
ExecutionTime = 17.296 s  ClockTime = 17 s

deltaT = 0.5
Time = 578.831886s

DICPCG:  Solving for e, Initial residual = 0.0838851, Final residual = 0.00384791, No Iterations 4
DICPCG:  Solving for e, Initial residual = 0.00391888, Final residual = 0.000231737, No Iterations 4
DICPCG:  Solving for e, Initial residual = 0.000528587, Final residual = 7.00742e-07, No Iterations 8
ExecutionTime = 17.3096 s  ClockTime = 17 s

deltaT = 0.5
Time = 579.331886s

DICPCG:  Solving for e, Initial residual = 0.0838851, Final residual = 0.00384791, No Iterations 4
DICPCG:  Solving for e, Initial residual = 0.00391888, Final residual = 0.000231737, No Iterations 4
DICPCG:  Solving for e, Initial residual = 0.000528587, Final residual = 7.00742e-07, No Iterations 8
ExecutionTime = 17.3229 s  ClockTime = 17 s

deltaT = 0.5
Time = 579.831886s

DICPCG:  Solving for e, Initial residual = 0.0838851, Final residual = 0.00384791, No Iterations 4
DICPCG:  Solving for e, Initial residual = 0.00391888, Final residual = 0.000231737, No Iterations 4
DICPCG:  Solving for e, Initial residual = 0.000528587, Final residual = 7.00742e-07, No Iterations 8
ExecutionTime = 17.3528 s  ClockTime = 17 s

deltaT = 0.5
Time = 580.331886s

DICPCG:  Solving for e, Initial residual = 0.0838851, Final residual = 0.00384791, No Iterations 4
DICPCG:  Solving for e, Initial residual = 0.00391888, Final residual = 0.000231737, No Iterations 4
DICPCG:  Solving for e, Initial residual = 0.000528587, Final residual = 7.00742e-07, No Iterations 8
ExecutionTime = 17.3662 s  ClockTime = 17 s

deltaT = 0.5
Time = 580.831886s

DICPCG:  Solving for e, Initial residual = 0.0838851, Final residual = 0.00384791, No Iterations 4
DICPCG:  Solving for e, Initial residual = 0.00391888, Final residual = 0.000231737, No Iterations 4
DICPCG:  Solving for e, Initial residual = 0.000528587, Final residual = 7.00742e-07, No Iterations 8
ExecutionTime = 17.3799 s  ClockTime = 17 s

deltaT = 0.5
Time = 581.331886s

DICPCG:  Solving for e, Initial residual = 0.0838851, Final residual = 0.00384791, No Iterations 4
DICPCG:  Solving for e, Initial residual = 0.00391888, Final residual = 0.000231737, No Iterations 4
DICPCG:  Solving for e, Initial residual = 0.000528587, Final residual = 7.00742e-07, No Iterations 8
ExecutionTime = 17.3933 s  ClockTime = 17 s

deltaT = 0.5
Time = 581.831886s

DICPCG:  Solving for e, Initial residual = 0.0838851, Final residual = 0.00384791, No Iterations 4
DICPCG:  Solving for e, Initial residual = 0.00391888, Final residual = 0.000231737, No Iterations 4
DICPCG:  Solving for e, Initial residual = 0.000528587, Final residual = 7.00742e-07, No Iterations 8
ExecutionTime = 17.4069 s  ClockTime = 17 s

deltaT = 0.5
Time = 582.331886s

DICPCG:  Solving for e, Initial residual = 0.0838851, Final residual = 0.00384791, No Iterations 4
DICPCG:  Solving for e, Initial residual = 0.00391888, Final residual = 0.000231737, No Iterations 4
DICPCG:  Solving for e, Initial residual = 0.000528587, Final residual = 7.00742e-07, No Iterations 8
ExecutionTime = 17.4202 s  ClockTime = 18 s

deltaT = 0.5
Time = 582.831886s

DICPCG:  Solving for e, Initial residual = 0.0838851, Final residual = 0.00384791, No Iterations 4
DICPCG:  Solving for e, Initial residual = 0.00391888, Final residual = 0.000231737, No Iterations 4
DICPCG:  Solving for e, Initial residual = 0.000528587, Final residual = 7.00742e-07, No Iterations 8
ExecutionTime = 17.4339 s  ClockTime = 18 s

deltaT = 0.5
Time = 583.331886s

DICPCG:  Solving for e, Initial residual = 0.0838851, Final residual = 0.00384791, No Iterations 4
DICPCG:  Solving for e, Initial residual = 0.00391888, Final residual = 0.000231737, No Iterations 4
DICPCG:  Solving for e, Initial residual = 0.000528587, Final residual = 7.00742e-07, No Iterations 8
ExecutionTime = 17.4473 s  ClockTime = 18 s

deltaT = 0.5
Time = 583.831886s

DICPCG:  Solving for e, Initial residual = 0.0838851, Final residual = 0.00384791, No Iterations 4
DICPCG:  Solving for e, Initial residual = 0.00391888, Final residual = 0.000231737, No Iterations 4
DICPCG:  Solving for e, Initial residual = 0.000528587, Final residual = 7.00742e-07, No Iterations 8
ExecutionTime = 17.4609 s  ClockTime = 18 s

deltaT = 0.5
Time = 584.331886s

DICPCG:  Solving for e, Initial residual = 0.0838851, Final residual = 0.00384791, No Iterations 4
DICPCG:  Solving for e, Initial residual = 0.00391888, Final residual = 0.000231737, No Iterations 4
DICPCG:  Solving for e, Initial residual = 0.000528587, Final residual = 7.00742e-07, No Iterations 8
ExecutionTime = 17.4743 s  ClockTime = 18 s

deltaT = 0.5
Time = 584.831886s

DICPCG:  Solving for e, Initial residual = 0.0838851, Final residual = 0.00384791, No Iterations 4
DICPCG:  Solving for e, Initial residual = 0.00391888, Final residual = 0.000231737, No Iterations 4
DICPCG:  Solving for e, Initial residual = 0.000528587, Final residual = 7.00742e-07, No Iterations 8
ExecutionTime = 17.5034 s  ClockTime = 18 s

deltaT = 0.5
Time = 585.331886s

DICPCG:  Solving for e, Initial residual = 0.0838851, Final residual = 0.00384791, No Iterations 4
DICPCG:  Solving for e, Initial residual = 0.00391888, Final residual = 0.000231737, No Iterations 4
DICPCG:  Solving for e, Initial residual = 0.000528587, Final residual = 7.00742e-07, No Iterations 8
ExecutionTime = 17.5159 s  ClockTime = 18 s

deltaT = 0.5
Time = 585.831886s

DICPCG:  Solving for e, Initial residual = 0.0838851, Final residual = 0.00384791, No Iterations 4
DICPCG:  Solving for e, Initial residual = 0.00391888, Final residual = 0.000231737, No Iterations 4
DICPCG:  Solving for e, Initial residual = 0.000528587, Final residual = 7.00742e-07, No Iterations 8
ExecutionTime = 17.5285 s  ClockTime = 18 s

deltaT = 0.5
Time = 586.331886s

DICPCG:  Solving for e, Initial residual = 0.0838851, Final residual = 0.00384791, No Iterations 4
DICPCG:  Solving for e, Initial residual = 0.00391888, Final residual = 0.000231737, No Iterations 4
DICPCG:  Solving for e, Initial residual = 0.000528587, Final residual = 7.00742e-07, No Iterations 8
ExecutionTime = 17.5409 s  ClockTime = 18 s

deltaT = 0.5
Time = 586.831886s

DICPCG:  Solving for e, Initial residual = 0.0838851, Final residual = 0.00384791, No Iterations 4
DICPCG:  Solving for e, Initial residual = 0.00391888, Final residual = 0.000231737, No Iterations 4
DICPCG:  Solving for e, Initial residual = 0.000528587, Final residual = 7.00742e-07, No Iterations 8
ExecutionTime = 17.5535 s  ClockTime = 18 s

deltaT = 0.5
Time = 587.331886s

DICPCG:  Solving for e, Initial residual = 0.0838851, Final residual = 0.00384791, No Iterations 4
DICPCG:  Solving for e, Initial residual = 0.00391888, Final residual = 0.000231737, No Iterations 4
DICPCG:  Solving for e, Initial residual = 0.000528587, Final residual = 7.00742e-07, No Iterations 8
ExecutionTime = 17.5658 s  ClockTime = 18 s

deltaT = 0.5
Time = 587.831886s

DICPCG:  Solving for e, Initial residual = 0.0838851, Final residual = 0.00384791, No Iterations 4
DICPCG:  Solving for e, Initial residual = 0.00391888, Final residual = 0.000231737, No Iterations 4
DICPCG:  Solving for e, Initial residual = 0.000528587, Final residual = 7.00742e-07, No Iterations 8
ExecutionTime = 17.5787 s  ClockTime = 18 s

deltaT = 0.5
Time = 588.331886s

DICPCG:  Solving for e, Initial residual = 0.0838851, Final residual = 0.00384791, No Iterations 4
DICPCG:  Solving for e, Initial residual = 0.00391888, Final residual = 0.000231737, No Iterations 4
DICPCG:  Solving for e, Initial residual = 0.000528587, Final residual = 7.00742e-07, No Iterations 8
ExecutionTime = 17.5915 s  ClockTime = 18 s

deltaT = 0.5
Time = 588.831886s

DICPCG:  Solving for e, Initial residual = 0.0838851, Final residual = 0.00384791, No Iterations 4
DICPCG:  Solving for e, Initial residual = 0.00391888, Final residual = 0.000231737, No Iterations 4
DICPCG:  Solving for e, Initial residual = 0.000528587, Final residual = 7.00742e-07, No Iterations 8
ExecutionTime = 17.6042 s  ClockTime = 18 s

deltaT = 0.5
Time = 589.331886s

DICPCG:  Solving for e, Initial residual = 0.0838851, Final residual = 0.00384791, No Iterations 4
DICPCG:  Solving for e, Initial residual = 0.00391888, Final residual = 0.000231737, No Iterations 4
DICPCG:  Solving for e, Initial residual = 0.000528587, Final residual = 7.00742e-07, No Iterations 8
ExecutionTime = 17.6174 s  ClockTime = 18 s

deltaT = 0.5
Time = 589.831886s

DICPCG:  Solving for e, Initial residual = 0.0838851, Final residual = 0.00384791, No Iterations 4
DICPCG:  Solving for e, Initial residual = 0.00391888, Final residual = 0.000231737, No Iterations 4
DICPCG:  Solving for e, Initial residual = 0.000528587, Final residual = 7.00742e-07, No Iterations 8
ExecutionTime = 17.6458 s  ClockTime = 18 s

deltaT = 0.5
Time = 590.331886s

DICPCG:  Solving for e, Initial residual = 0.0838851, Final residual = 0.00384791, No Iterations 4
DICPCG:  Solving for e, Initial residual = 0.00391888, Final residual = 0.000231737, No Iterations 4
DICPCG:  Solving for e, Initial residual = 0.000528587, Final residual = 7.00742e-07, No Iterations 8
ExecutionTime = 17.6584 s  ClockTime = 18 s

deltaT = 0.5
Time = 590.831886s

DICPCG:  Solving for e, Initial residual = 0.0838851, Final residual = 0.00384791, No Iterations 4
DICPCG:  Solving for e, Initial residual = 0.00391888, Final residual = 0.000231737, No Iterations 4
DICPCG:  Solving for e, Initial residual = 0.000528587, Final residual = 7.00742e-07, No Iterations 8
ExecutionTime = 17.6711 s  ClockTime = 18 s

deltaT = 0.5
Time = 591.331886s

DICPCG:  Solving for e, Initial residual = 0.0838851, Final residual = 0.00384791, No Iterations 4
DICPCG:  Solving for e, Initial residual = 0.00391888, Final residual = 0.000231737, No Iterations 4
DICPCG:  Solving for e, Initial residual = 0.000528587, Final residual = 7.00742e-07, No Iterations 8
ExecutionTime = 17.6835 s  ClockTime = 18 s

deltaT = 0.5
Time = 591.831886s

DICPCG:  Solving for e, Initial residual = 0.0838851, Final residual = 0.00384791, No Iterations 4
DICPCG:  Solving for e, Initial residual = 0.00391888, Final residual = 0.000231737, No Iterations 4
DICPCG:  Solving for e, Initial residual = 0.000528587, Final residual = 7.00742e-07, No Iterations 8
ExecutionTime = 17.6961 s  ClockTime = 18 s

deltaT = 0.5
Time = 592.331886s

DICPCG:  Solving for e, Initial residual = 0.0838851, Final residual = 0.00384791, No Iterations 4
DICPCG:  Solving for e, Initial residual = 0.00391888, Final residual = 0.000231737, No Iterations 4
DICPCG:  Solving for e, Initial residual = 0.000528587, Final residual = 7.00742e-07, No Iterations 8
ExecutionTime = 17.7084 s  ClockTime = 18 s

deltaT = 0.5
Time = 592.831886s

DICPCG:  Solving for e, Initial residual = 0.0838851, Final residual = 0.00384791, No Iterations 4
DICPCG:  Solving for e, Initial residual = 0.00391888, Final residual = 0.000231737, No Iterations 4
DICPCG:  Solving for e, Initial residual = 0.000528587, Final residual = 7.00742e-07, No Iterations 8
ExecutionTime = 17.7211 s  ClockTime = 18 s

deltaT = 0.5
Time = 593.331886s

DICPCG:  Solving for e, Initial residual = 0.0838851, Final residual = 0.00384791, No Iterations 4
DICPCG:  Solving for e, Initial residual = 0.00391888, Final residual = 0.000231737, No Iterations 4
DICPCG:  Solving for e, Initial residual = 0.000528587, Final residual = 7.00742e-07, No Iterations 8
ExecutionTime = 17.7335 s  ClockTime = 18 s

deltaT = 0.5
Time = 593.831886s

DICPCG:  Solving for e, Initial residual = 0.0838851, Final residual = 0.00384791, No Iterations 4
DICPCG:  Solving for e, Initial residual = 0.00391888, Final residual = 0.000231737, No Iterations 4
DICPCG:  Solving for e, Initial residual = 0.000528587, Final residual = 7.00742e-07, No Iterations 8
ExecutionTime = 17.7461 s  ClockTime = 18 s

deltaT = 0.5
Time = 594.331886s

DICPCG:  Solving for e, Initial residual = 0.0838851, Final residual = 0.00384791, No Iterations 4
DICPCG:  Solving for e, Initial residual = 0.00391888, Final residual = 0.000231737, No Iterations 4
DICPCG:  Solving for e, Initial residual = 0.000528587, Final residual = 7.00742e-07, No Iterations 8
ExecutionTime = 17.7584 s  ClockTime = 18 s

deltaT = 0.5
Time = 594.831886s

DICPCG:  Solving for e, Initial residual = 0.0838851, Final residual = 0.00384791, No Iterations 4
DICPCG:  Solving for e, Initial residual = 0.00391888, Final residual = 0.000231737, No Iterations 4
DICPCG:  Solving for e, Initial residual = 0.000528587, Final residual = 7.00742e-07, No Iterations 8
ExecutionTime = 17.7863 s  ClockTime = 18 s

deltaT = 0.5
Time = 595.331886s

DICPCG:  Solving for e, Initial residual = 0.0838851, Final residual = 0.00384791, No Iterations 4
DICPCG:  Solving for e, Initial residual = 0.00391888, Final residual = 0.000231737, No Iterations 4
DICPCG:  Solving for e, Initial residual = 0.000528587, Final residual = 7.00742e-07, No Iterations 8
ExecutionTime = 17.7991 s  ClockTime = 18 s

deltaT = 0.5
Time = 595.831886s

DICPCG:  Solving for e, Initial residual = 0.0838851, Final residual = 0.00384791, No Iterations 4
DICPCG:  Solving for e, Initial residual = 0.00391888, Final residual = 0.000231737, No Iterations 4
DICPCG:  Solving for e, Initial residual = 0.000528587, Final residual = 7.00742e-07, No Iterations 8
ExecutionTime = 17.8119 s  ClockTime = 18 s

deltaT = 0.5
Time = 596.331886s

DICPCG:  Solving for e, Initial residual = 0.0838851, Final residual = 0.00384791, No Iterations 4
DICPCG:  Solving for e, Initial residual = 0.00391888, Final residual = 0.000231737, No Iterations 4
DICPCG:  Solving for e, Initial residual = 0.000528587, Final residual = 7.00742e-07, No Iterations 8
ExecutionTime = 17.8242 s  ClockTime = 18 s

deltaT = 0.5
Time = 596.831886s

DICPCG:  Solving for e, Initial residual = 0.0838851, Final residual = 0.00384791, No Iterations 4
DICPCG:  Solving for e, Initial residual = 0.00391888, Final residual = 0.000231737, No Iterations 4
DICPCG:  Solving for e, Initial residual = 0.000528587, Final residual = 7.00742e-07, No Iterations 8
ExecutionTime = 17.8367 s  ClockTime = 18 s

deltaT = 0.5
Time = 597.331886s

DICPCG:  Solving for e, Initial residual = 0.0838851, Final residual = 0.00384791, No Iterations 4
DICPCG:  Solving for e, Initial residual = 0.00391888, Final residual = 0.000231737, No Iterations 4
DICPCG:  Solving for e, Initial residual = 0.000528587, Final residual = 7.00742e-07, No Iterations 8
ExecutionTime = 17.849 s  ClockTime = 18 s

deltaT = 0.5
Time = 597.831886s

DICPCG:  Solving for e, Initial residual = 0.0838851, Final residual = 0.00384791, No Iterations 4
DICPCG:  Solving for e, Initial residual = 0.00391888, Final residual = 0.000231737, No Iterations 4
DICPCG:  Solving for e, Initial residual = 0.000528587, Final residual = 7.00742e-07, No Iterations 8
ExecutionTime = 17.8614 s  ClockTime = 18 s

deltaT = 0.5
Time = 598.331886s

DICPCG:  Solving for e, Initial residual = 0.0838851, Final residual = 0.00384791, No Iterations 4
DICPCG:  Solving for e, Initial residual = 0.00391888, Final residual = 0.000231737, No Iterations 4
DICPCG:  Solving for e, Initial residual = 0.000528587, Final residual = 7.00742e-07, No Iterations 8
ExecutionTime = 17.8736 s  ClockTime = 18 s

deltaT = 0.5
Time = 598.831886s

DICPCG:  Solving for e, Initial residual = 0.0838851, Final residual = 0.00384791, No Iterations 4
DICPCG:  Solving for e, Initial residual = 0.00391888, Final residual = 0.000231737, No Iterations 4
DICPCG:  Solving for e, Initial residual = 0.000528587, Final residual = 7.00742e-07, No Iterations 8
ExecutionTime = 17.8861 s  ClockTime = 18 s

deltaT = 0.5
Time = 599.331886s

DICPCG:  Solving for e, Initial residual = 0.0838851, Final residual = 0.00384791, No Iterations 4
DICPCG:  Solving for e, Initial residual = 0.00391888, Final residual = 0.000231737, No Iterations 4
DICPCG:  Solving for e, Initial residual = 0.000528587, Final residual = 7.00742e-07, No Iterations 8
ExecutionTime = 17.8983 s  ClockTime = 18 s

deltaT = 0.5
Time = 599.831886s

DICPCG:  Solving for e, Initial residual = 0.0838851, Final residual = 0.00384791, No Iterations 4
DICPCG:  Solving for e, Initial residual = 0.00391888, Final residual = 0.000231737, No Iterations 4
DICPCG:  Solving for e, Initial residual = 0.000528587, Final residual = 7.00742e-07, No Iterations 8
ExecutionTime = 17.9257 s  ClockTime = 18 s

End

