/*---------------------------------------------------------------------------*\
| =========                 |                                                 |
| \\      /  F ield         | OpenFOAM: The Open Source CFD Toolbox           |
|  \\    /   O peration     | Version:  2306                                  |
|   \\  /    A nd           | Website:  www.openfoam.com                      |
|    \\/     M anipulation  |                                                 |
\*---------------------------------------------------------------------------*/
Build  : _ecd61f0e-20231130 OPENFOAM=2306 patch=231130 version=2306
Arch   : "LSB;label=32;scalar=64"
Exec   : pimpleFoam
Date   : Sep 05 2025
Time   : 16:36:31
Host   : ed-ThinkPad
PID    : 23015
I/O    : uncollated
Case   : /home/ecastro/OpenFOAM/ecastro-v2306/run/tundishTutorial/tundishBasic2D/tundishFlow2D
nProcs : 1
trapFpe: Floating point exception trapping enabled (FOAM_SIGFPE).
fileModificationChecking : Monitoring run-time modified files using timeStampMaster (fileModificationSkew 5, maxFileModificationPolls 20)
allowSystemOperations : Allowing user-supplied system call operations

// * * * * * * * * * * * * * * * * * * * * * * * * * * * * * * * * * * * * * //
Create time

Create mesh for time = 0


PIMPLE: no residual control data found. Calculations will employ 2 corrector loops

Reading field p

Reading field U

Reading/calculating face flux field phi

Selecting incompressible transport model Newtonian
Selecting turbulence model type RAS
Selecting RAS turbulence model kEpsilon
RAS
{
    RASModel        kEpsilon;
    turbulence      off;
    printCoeffs     on;
    Cmu             0.09;
    C1              1.44;
    C2              1.92;
    C3              0;
    sigmak          1;
    sigmaEps        1.3;
}

No MRF models present

No finite volume options present
Courant Number mean: 0.000178571 max: 0.2
fieldAverage fieldAverage1:
    Restart period 10 - next restart at 10

    Restarting averaging for fields:
        U: starting averaging at time 0

surfaceFieldValue surfaceFieldValue1:
    operation     = areaAverage


surfaceFieldValue surfaceFieldValue2:
    operation     = areaAverage


Courant Number mean: 0.000178571 max: 0.2

Starting time loop

Courant Number mean: 0.000178571 max: 0.2
deltaT = 0.120482
Time = 0.120482

PIMPLE: iteration 1
smoothSolver:  Solving for Ux, Initial residual = 1, Final residual = 0.00577224, No Iterations 2
smoothSolver:  Solving for Uz, Initial residual = 1, Final residual = 0.00515768, No Iterations 2
GAMG:  Solving for p, Initial residual = 1, Final residual = 0.00825571, No Iterations 4
time step continuity errors : sum local = 3.94944e-06, global = -1.09359e-06, cumulative = -1.09359e-06
GAMG:  Solving for p, Initial residual = 0.0189004, Final residual = 0.000158272, No Iterations 4
time step continuity errors : sum local = 3.01898e-06, global = 8.74504e-07, cumulative = -2.19083e-07
GAMG:  Solving for p, Initial residual = 0.00371256, Final residual = 3.54456e-08, No Iterations 8
time step continuity errors : sum local = 3.77952e-10, global = 1.03344e-10, cumulative = -2.1898e-07
PIMPLE: iteration 2
smoothSolver:  Solving for Ux, Initial residual = 0.00751515, Final residual = 8.30554e-07, No Iterations 4
smoothSolver:  Solving for Uz, Initial residual = 0.0206851, Final residual = 2.98286e-07, No Iterations 5
GAMG:  Solving for p, Initial residual = 0.0310573, Final residual = 0.000156312, No Iterations 4
time step continuity errors : sum local = 1.28137e-06, global = -5.58073e-07, cumulative = -7.77053e-07
GAMG:  Solving for p, Initial residual = 0.00845393, Final residual = 6.36082e-05, No Iterations 4
time step continuity errors : sum local = 5.49972e-07, global = 2.57692e-07, cumulative = -5.1936e-07
GAMG:  Solving for p, Initial residual = 0.00101384, Final residual = 4.97248e-08, No Iterations 7
time step continuity errors : sum local = 4.22515e-10, global = 9.94044e-11, cumulative = -5.19261e-07
ExecutionTime = 0.07 s  ClockTime = 0 s

fieldAverage fieldAverage1:
    Reading/initialising field UMean

fieldAverage fieldAverage1 write:
    Calculating averages

Courant Number mean: 0.0606178 max: 0.65173
deltaT = 0.139148
Time = 0.25963

PIMPLE: iteration 1
smoothSolver:  Solving for Ux, Initial residual = 0.546528, Final residual = 0.0104954, No Iterations 2
smoothSolver:  Solving for Uz, Initial residual = 0.390045, Final residual = 0.00792767, No Iterations 2
GAMG:  Solving for p, Initial residual = 0.0805392, Final residual = 0.00051517, No Iterations 4
time step continuity errors : sum local = 5.37049e-06, global = 1.36039e-06, cumulative = 8.41129e-07
GAMG:  Solving for p, Initial residual = 0.0538311, Final residual = 0.000295861, No Iterations 4
time step continuity errors : sum local = 3.06123e-06, global = -9.12543e-07, cumulative = -7.14131e-08
GAMG:  Solving for p, Initial residual = 0.0710333, Final residual = 9.72128e-08, No Iterations 9
time step continuity errors : sum local = 9.3166e-11, global = -2.11101e-11, cumulative = -7.14342e-08
PIMPLE: iteration 2
smoothSolver:  Solving for Ux, Initial residual = 0.00547304, Final residual = 1.82369e-07, No Iterations 5
smoothSolver:  Solving for Uz, Initial residual = 0.0054431, Final residual = 2.56829e-07, No Iterations 5
GAMG:  Solving for p, Initial residual = 0.0401606, Final residual = 0.000168099, No Iterations 3
time step continuity errors : sum local = 1.83942e-07, global = 4.7556e-08, cumulative = -2.38782e-08
GAMG:  Solving for p, Initial residual = 0.0110594, Final residual = 9.77222e-05, No Iterations 3
time step continuity errors : sum local = 1.03962e-07, global = -2.663e-08, cumulative = -5.05082e-08
GAMG:  Solving for p, Initial residual = 0.00152234, Final residual = 2.53537e-08, No Iterations 7
time step continuity errors : sum local = 2.71887e-11, global = -6.40802e-12, cumulative = -5.05146e-08
ExecutionTime = 0.09 s  ClockTime = 0 s

fieldAverage fieldAverage1 write:
    Calculating averages

Courant Number mean: 0.069986 max: 0.712026
deltaT = 0.159678
Time = 0.419308

PIMPLE: iteration 1
smoothSolver:  Solving for Ux, Initial residual = 0.0119597, Final residual = 0.000234563, No Iterations 2
smoothSolver:  Solving for Uz, Initial residual = 0.0177991, Final residual = 0.00041556, No Iterations 2
GAMG:  Solving for p, Initial residual = 0.0591733, Final residual = 0.000441244, No Iterations 3
time step continuity errors : sum local = 5.88839e-07, global = 3.10425e-07, cumulative = 2.5991e-07
GAMG:  Solving for p, Initial residual = 0.0211585, Final residual = 0.000103125, No Iterations 4
time step continuity errors : sum local = 1.29964e-07, global = -6.19015e-08, cumulative = 1.98009e-07
GAMG:  Solving for p, Initial residual = 0.00310622, Final residual = 2.46884e-08, No Iterations 8
time step continuity errors : sum local = 3.16221e-11, global = -7.00212e-12, cumulative = 1.98002e-07
PIMPLE: iteration 2
smoothSolver:  Solving for Ux, Initial residual = 0.000322739, Final residual = 6.43039e-07, No Iterations 3
smoothSolver:  Solving for Uz, Initial residual = 0.00125586, Final residual = 4.90886e-07, No Iterations 4
GAMG:  Solving for p, Initial residual = 0.0212078, Final residual = 6.79462e-05, No Iterations 3
time step continuity errors : sum local = 8.71058e-08, global = 1.22133e-08, cumulative = 2.10215e-07
GAMG:  Solving for p, Initial residual = 0.00636579, Final residual = 4.69458e-05, No Iterations 3
time step continuity errors : sum local = 5.95876e-08, global = 5.96143e-09, cumulative = 2.16176e-07
GAMG:  Solving for p, Initial residual = 0.000906797, Final residual = 2.23129e-08, No Iterations 6
time step continuity errors : sum local = 2.838e-11, global = -6.6324e-12, cumulative = 2.1617e-07
ExecutionTime = 0.12 s  ClockTime = 0 s

fieldAverage fieldAverage1 write:
    Calculating averages

Courant Number mean: 0.0802619 max: 0.792355
deltaT = 0.180768
Time = 0.600076

PIMPLE: iteration 1
smoothSolver:  Solving for Ux, Initial residual = 0.0114172, Final residual = 0.000309847, No Iterations 2
smoothSolver:  Solving for Uz, Initial residual = 0.0146681, Final residual = 0.000485694, No Iterations 2
GAMG:  Solving for p, Initial residual = 0.0233419, Final residual = 0.000134941, No Iterations 3
time step continuity errors : sum local = 2.05235e-07, global = 9.69921e-08, cumulative = 3.13162e-07
GAMG:  Solving for p, Initial residual = 0.00826537, Final residual = 3.43222e-05, No Iterations 4
time step continuity errors : sum local = 5.1237e-08, global = -2.35469e-08, cumulative = 2.89615e-07
GAMG:  Solving for p, Initial residual = 0.00110732, Final residual = 2.79794e-08, No Iterations 7
time step continuity errors : sum local = 4.20206e-11, global = -8.83353e-12, cumulative = 2.89606e-07
PIMPLE: iteration 2
smoothSolver:  Solving for Ux, Initial residual = 0.000279323, Final residual = 9.31142e-07, No Iterations 3
smoothSolver:  Solving for Uz, Initial residual = 0.000979626, Final residual = 7.46549e-07, No Iterations 4
GAMG:  Solving for p, Initial residual = 0.0166304, Final residual = 0.000108917, No Iterations 3
time step continuity errors : sum local = 1.63314e-07, global = -5.07386e-09, cumulative = 2.84532e-07
GAMG:  Solving for p, Initial residual = 0.00557987, Final residual = 5.05942e-05, No Iterations 3
time step continuity errors : sum local = 7.52873e-08, global = 7.55168e-09, cumulative = 2.92084e-07
GAMG:  Solving for p, Initial residual = 0.000786177, Final residual = 4.56659e-08, No Iterations 7
time step continuity errors : sum local = 6.80918e-11, global = 1.18686e-11, cumulative = 2.92096e-07
ExecutionTime = 0.14 s  ClockTime = 0 s

fieldAverage fieldAverage1 write:
    Calculating averages

Courant Number mean: 0.0908022 max: 0.880376
deltaT = 0.199998
Time = 0.800074

PIMPLE: iteration 1
smoothSolver:  Solving for Ux, Initial residual = 0.0110994, Final residual = 0.000391772, No Iterations 2
smoothSolver:  Solving for Uz, Initial residual = 0.0135299, Final residual = 0.000575586, No Iterations 2
GAMG:  Solving for p, Initial residual = 0.0197568, Final residual = 0.000186797, No Iterations 2
time step continuity errors : sum local = 3.18854e-07, global = 1.4913e-07, cumulative = 4.41226e-07
GAMG:  Solving for p, Initial residual = 0.00597292, Final residual = 4.35973e-05, No Iterations 3
time step continuity errors : sum local = 7.35684e-08, global = -8.4505e-09, cumulative = 4.32776e-07
GAMG:  Solving for p, Initial residual = 0.00085358, Final residual = 3.82866e-08, No Iterations 7
time step continuity errors : sum local = 6.47862e-11, global = -1.40952e-11, cumulative = 4.32762e-07
PIMPLE: iteration 2
smoothSolver:  Solving for Ux, Initial residual = 0.000284321, Final residual = 3.0929e-07, No Iterations 4
smoothSolver:  Solving for Uz, Initial residual = 0.000887047, Final residual = 2.38388e-07, No Iterations 5
GAMG:  Solving for p, Initial residual = 0.0139498, Final residual = 0.000102153, No Iterations 3
time step continuity errors : sum local = 1.72758e-07, global = -1.77621e-08, cumulative = 4.14999e-07
GAMG:  Solving for p, Initial residual = 0.00526274, Final residual = 2.15624e-05, No Iterations 4
time step continuity errors : sum local = 3.62753e-08, global = -2.34573e-10, cumulative = 4.14765e-07
GAMG:  Solving for p, Initial residual = 0.000656802, Final residual = 2.86659e-08, No Iterations 6
time step continuity errors : sum local = 4.82988e-11, global = 1.02391e-11, cumulative = 4.14775e-07
ExecutionTime = 0.16 s  ClockTime = 0 s

fieldAverage fieldAverage1 write:
    Calculating averages

Courant Number mean: 0.100404 max: 0.962551
deltaT = 0.209089
Time = 1.00916

PIMPLE: iteration 1
smoothSolver:  Solving for Ux, Initial residual = 0.0105226, Final residual = 0.000419759, No Iterations 2
smoothSolver:  Solving for Uz, Initial residual = 0.0123618, Final residual = 0.000595198, No Iterations 2
GAMG:  Solving for p, Initial residual = 0.0176798, Final residual = 0.000162534, No Iterations 2
time step continuity errors : sum local = 2.9037e-07, global = 9.56376e-08, cumulative = 5.10413e-07
GAMG:  Solving for p, Initial residual = 0.00512825, Final residual = 1.99671e-05, No Iterations 3
time step continuity errors : sum local = 3.54646e-08, global = 1.05841e-08, cumulative = 5.20997e-07
GAMG:  Solving for p, Initial residual = 0.000720983, Final residual = 2.64614e-08, No Iterations 6
time step continuity errors : sum local = 4.70756e-11, global = -1.20009e-11, cumulative = 5.20985e-07
PIMPLE: iteration 2
smoothSolver:  Solving for Ux, Initial residual = 0.000269177, Final residual = 3.76577e-07, No Iterations 4
smoothSolver:  Solving for Uz, Initial residual = 0.000782694, Final residual = 2.85608e-07, No Iterations 5
GAMG:  Solving for p, Initial residual = 0.0116591, Final residual = 9.86521e-05, No Iterations 3
time step continuity errors : sum local = 1.75614e-07, global = -1.88417e-08, cumulative = 5.02143e-07
GAMG:  Solving for p, Initial residual = 0.00472459, Final residual = 2.04667e-05, No Iterations 4
time step continuity errors : sum local = 3.6328e-08, global = -5.95937e-10, cumulative = 5.01547e-07
GAMG:  Solving for p, Initial residual = 0.00055321, Final residual = 3.96247e-08, No Iterations 6
time step continuity errors : sum local = 7.03818e-11, global = 1.32863e-11, cumulative = 5.01561e-07
ExecutionTime = 0.18 s  ClockTime = 0 s

fieldAverage fieldAverage1 write:
    Calculating averages

Courant Number mean: 0.104917 max: 0.998587
deltaT = 0.209089
Time = 1.21825

PIMPLE: iteration 1
smoothSolver:  Solving for Ux, Initial residual = 0.00965909, Final residual = 0.000396173, No Iterations 2
smoothSolver:  Solving for Uz, Initial residual = 0.0112473, Final residual = 0.000550244, No Iterations 2
GAMG:  Solving for p, Initial residual = 0.0140329, Final residual = 3.34618e-05, No Iterations 3
time step continuity errors : sum local = 5.94611e-08, global = 1.10485e-08, cumulative = 5.12609e-07
GAMG:  Solving for p, Initial residual = 0.0040907, Final residual = 2.0752e-05, No Iterations 3
time step continuity errors : sum local = 3.67566e-08, global = -1.26807e-08, cumulative = 4.99928e-07
GAMG:  Solving for p, Initial residual = 0.000529455, Final residual = 3.29263e-08, No Iterations 6
time step continuity errors : sum local = 5.84098e-11, global = -1.24505e-11, cumulative = 4.99916e-07
PIMPLE: iteration 2
smoothSolver:  Solving for Ux, Initial residual = 0.000253338, Final residual = 3.88033e-07, No Iterations 4
smoothSolver:  Solving for Uz, Initial residual = 0.000659856, Final residual = 2.51824e-07, No Iterations 5
GAMG:  Solving for p, Initial residual = 0.00951534, Final residual = 3.86954e-05, No Iterations 4
time step continuity errors : sum local = 6.87152e-08, global = 3.56438e-09, cumulative = 5.0348e-07
GAMG:  Solving for p, Initial residual = 0.00404506, Final residual = 2.31169e-05, No Iterations 4
time step continuity errors : sum local = 4.09726e-08, global = 1.44569e-09, cumulative = 5.04926e-07
GAMG:  Solving for p, Initial residual = 0.000429973, Final residual = 3.95867e-08, No Iterations 7
time step continuity errors : sum local = 7.01791e-11, global = -1.62046e-11, cumulative = 5.0491e-07
ExecutionTime = 0.21 s  ClockTime = 0 s

fieldAverage fieldAverage1 write:
    Calculating averages

Courant Number mean: 0.104894 max: 0.9934
deltaT = 0.209089
Time = 1.42734

PIMPLE: iteration 1
smoothSolver:  Solving for Ux, Initial residual = 0.00902499, Final residual = 0.00037716, No Iterations 2
smoothSolver:  Solving for Uz, Initial residual = 0.0104756, Final residual = 0.000517018, No Iterations 2
GAMG:  Solving for p, Initial residual = 0.0119971, Final residual = 3.2902e-05, No Iterations 3
time step continuity errors : sum local = 5.83116e-08, global = 1.49796e-08, cumulative = 5.19889e-07
GAMG:  Solving for p, Initial residual = 0.00355373, Final residual = 2.29759e-05, No Iterations 3
time step continuity errors : sum local = 4.05883e-08, global = -1.2292e-08, cumulative = 5.07597e-07
GAMG:  Solving for p, Initial residual = 0.00043571, Final residual = 8.31538e-08, No Iterations 5
time step continuity errors : sum local = 1.47058e-10, global = -3.18628e-11, cumulative = 5.07565e-07
PIMPLE: iteration 2
smoothSolver:  Solving for Ux, Initial residual = 0.000229666, Final residual = 3.60845e-07, No Iterations 4
smoothSolver:  Solving for Uz, Initial residual = 0.000575688, Final residual = 2.28075e-07, No Iterations 5
GAMG:  Solving for p, Initial residual = 0.00792061, Final residual = 3.57149e-05, No Iterations 4
time step continuity errors : sum local = 6.3231e-08, global = 3.3559e-09, cumulative = 5.10921e-07
GAMG:  Solving for p, Initial residual = 0.00350781, Final residual = 2.11276e-05, No Iterations 4
time step continuity errors : sum local = 3.73745e-08, global = 1.49442e-10, cumulative = 5.11071e-07
GAMG:  Solving for p, Initial residual = 0.00035043, Final residual = 8.34324e-08, No Iterations 6
time step continuity errors : sum local = 1.47576e-10, global = 2.33498e-11, cumulative = 5.11094e-07
ExecutionTime = 0.23 s  ClockTime = 0 s

fieldAverage fieldAverage1 write:
    Calculating averages

Courant Number mean: 0.104895 max: 0.989694
deltaT = 0.209089
Time = 1.63643

PIMPLE: iteration 1
smoothSolver:  Solving for Ux, Initial residual = 0.00849343, Final residual = 0.000360417, No Iterations 2
smoothSolver:  Solving for Uz, Initial residual = 0.00982425, Final residual = 0.000489685, No Iterations 2
GAMG:  Solving for p, Initial residual = 0.0100128, Final residual = 3.15602e-05, No Iterations 3
time step continuity errors : sum local = 5.58758e-08, global = 1.64487e-08, cumulative = 5.27543e-07
GAMG:  Solving for p, Initial residual = 0.00318346, Final residual = 2.13077e-05, No Iterations 3
time step continuity errors : sum local = 3.7661e-08, global = -1.05767e-08, cumulative = 5.16966e-07
GAMG:  Solving for p, Initial residual = 0.000382976, Final residual = 7.48939e-08, No Iterations 5
time step continuity errors : sum local = 1.32439e-10, global = -2.77633e-11, cumulative = 5.16938e-07
PIMPLE: iteration 2
smoothSolver:  Solving for Ux, Initial residual = 0.000211337, Final residual = 3.38858e-07, No Iterations 4
smoothSolver:  Solving for Uz, Initial residual = 0.000509004, Final residual = 9.55518e-07, No Iterations 4
GAMG:  Solving for p, Initial residual = 0.00679708, Final residual = 3.15099e-05, No Iterations 4
time step continuity errors : sum local = 5.57787e-08, global = 2.62375e-09, cumulative = 5.19562e-07
GAMG:  Solving for p, Initial residual = 0.00309686, Final residual = 1.90372e-05, No Iterations 4
time step continuity errors : sum local = 3.36903e-08, global = -6.55269e-10, cumulative = 5.18907e-07
GAMG:  Solving for p, Initial residual = 0.000294049, Final residual = 3.55275e-08, No Iterations 6
time step continuity errors : sum local = 6.28618e-11, global = 5.19099e-12, cumulative = 5.18912e-07
ExecutionTime = 0.25 s  ClockTime = 0 s

fieldAverage fieldAverage1 write:
    Calculating averages

Courant Number mean: 0.104914 max: 0.986915
deltaT = 0.21445
Time = 1.85088

PIMPLE: iteration 1
smoothSolver:  Solving for Ux, Initial residual = 0.00824101, Final residual = 0.000373084, No Iterations 2
smoothSolver:  Solving for Uz, Initial residual = 0.00948549, Final residual = 0.000116625, No Iterations 3
GAMG:  Solving for p, Initial residual = 0.00946679, Final residual = 5.39767e-05, No Iterations 3
time step continuity errors : sum local = 9.8797e-08, global = 3.1172e-08, cumulative = 5.50084e-07
GAMG:  Solving for p, Initial residual = 0.00369794, Final residual = 1.46879e-05, No Iterations 4
time step continuity errors : sum local = 2.68062e-08, global = -7.69726e-09, cumulative = 5.42387e-07
GAMG:  Solving for p, Initial residual = 0.000381943, Final residual = 2.72786e-08, No Iterations 6
time step continuity errors : sum local = 4.98207e-11, global = -1.17083e-11, cumulative = 5.42375e-07
PIMPLE: iteration 2
smoothSolver:  Solving for Ux, Initial residual = 0.000196481, Final residual = 3.36584e-07, No Iterations 4
smoothSolver:  Solving for Uz, Initial residual = 0.000451548, Final residual = 9.30361e-07, No Iterations 4
GAMG:  Solving for p, Initial residual = 0.00619429, Final residual = 2.84426e-05, No Iterations 4
time step continuity errors : sum local = 5.20034e-08, global = 1.9019e-09, cumulative = 5.44277e-07
GAMG:  Solving for p, Initial residual = 0.00290635, Final residual = 1.75514e-05, No Iterations 4
time step continuity errors : sum local = 3.20864e-08, global = -9.50308e-10, cumulative = 5.43327e-07
GAMG:  Solving for p, Initial residual = 0.000266875, Final residual = 2.07977e-08, No Iterations 6
time step continuity errors : sum local = 3.80112e-11, global = 5.12391e-12, cumulative = 5.43332e-07
ExecutionTime = 0.27 s  ClockTime = 0 s

fieldAverage fieldAverage1 write:
    Calculating averages

surfaceFieldValue surfaceFieldValue1 write:
    total faces   = 4
    total area    = 0.01

    areaAverage(outlet) of U = (0.00585756 0 -0.0921992)
    areaAverage(outlet) of phi = 0.00025

surfaceFieldValue surfaceFieldValue2 write:
    total faces   = 4
    total area    = 0.01

    areaAverage(inlet) of U = (0 0 -0.1)
    areaAverage(inlet) of phi = -0.00025

Courant Number mean: 0.107638 max: 1.00999
deltaT = 0.21445
Time = 2.06533

PIMPLE: iteration 1
smoothSolver:  Solving for Ux, Initial residual = 0.00785771, Final residual = 0.000358879, No Iterations 2
smoothSolver:  Solving for Uz, Initial residual = 0.00902244, Final residual = 0.000111692, No Iterations 3
GAMG:  Solving for p, Initial residual = 0.00791633, Final residual = 4.99375e-05, No Iterations 3
time step continuity errors : sum local = 9.13536e-08, global = 2.61335e-08, cumulative = 5.69465e-07
GAMG:  Solving for p, Initial residual = 0.00318476, Final residual = 1.53225e-05, No Iterations 4
time step continuity errors : sum local = 2.79966e-08, global = -7.00867e-09, cumulative = 5.62457e-07
GAMG:  Solving for p, Initial residual = 0.000310451, Final residual = 8.06394e-08, No Iterations 5
time step continuity errors : sum local = 1.47367e-10, global = -2.97726e-11, cumulative = 5.62427e-07
PIMPLE: iteration 2
smoothSolver:  Solving for Ux, Initial residual = 0.000183574, Final residual = 3.22856e-07, No Iterations 4
smoothSolver:  Solving for Uz, Initial residual = 0.00040863, Final residual = 8.66643e-07, No Iterations 4
GAMG:  Solving for p, Initial residual = 0.00545657, Final residual = 2.64551e-05, No Iterations 4
time step continuity errors : sum local = 4.83959e-08, global = 2.06383e-09, cumulative = 5.64491e-07
GAMG:  Solving for p, Initial residual = 0.0026126, Final residual = 1.63459e-05, No Iterations 4
time step continuity errors : sum local = 2.99131e-08, global = -1.13243e-09, cumulative = 5.63358e-07
GAMG:  Solving for p, Initial residual = 0.000228219, Final residual = 9.824e-08, No Iterations 5
time step continuity errors : sum local = 1.79717e-10, global = 5.04503e-11, cumulative = 5.63409e-07
ExecutionTime = 0.32 s  ClockTime = 0 s

fieldAverage fieldAverage1 write:
    Calculating averages

Courant Number mean: 0.107695 max: 1.00819
deltaT = 0.21445
Time = 2.27978

PIMPLE: iteration 1
smoothSolver:  Solving for Ux, Initial residual = 0.00751128, Final residual = 0.000346299, No Iterations 2
smoothSolver:  Solving for Uz, Initial residual = 0.00859186, Final residual = 0.000106853, No Iterations 3
GAMG:  Solving for p, Initial residual = 0.00756702, Final residual = 4.84482e-05, No Iterations 3
time step continuity errors : sum local = 8.87359e-08, global = 2.46456e-08, cumulative = 5.88054e-07
GAMG:  Solving for p, Initial residual = 0.00295743, Final residual = 1.46258e-05, No Iterations 4
time step continuity errors : sum local = 2.6766e-08, global = -6.46472e-09, cumulative = 5.8159e-07
GAMG:  Solving for p, Initial residual = 0.000285634, Final residual = 7.83534e-08, No Iterations 5
time step continuity errors : sum local = 1.43402e-10, global = -2.89266e-11, cumulative = 5.81561e-07
PIMPLE: iteration 2
smoothSolver:  Solving for Ux, Initial residual = 0.00017376, Final residual = 3.11056e-07, No Iterations 4
smoothSolver:  Solving for Uz, Initial residual = 0.000377468, Final residual = 8.12113e-07, No Iterations 4
GAMG:  Solving for p, Initial residual = 0.00489688, Final residual = 2.5155e-05, No Iterations 4
time step continuity errors : sum local = 4.60874e-08, global = 2.2013e-09, cumulative = 5.83762e-07
GAMG:  Solving for p, Initial residual = 0.00238547, Final residual = 1.54303e-05, No Iterations 4
time step continuity errors : sum local = 2.8282e-08, global = -1.21898e-09, cumulative = 5.82543e-07
GAMG:  Solving for p, Initial residual = 0.000200865, Final residual = 2.64636e-08, No Iterations 6
time step continuity errors : sum local = 4.84877e-11, global = 3.1918e-12, cumulative = 5.82546e-07
ExecutionTime = 0.34 s  ClockTime = 0 s

fieldAverage fieldAverage1 write:
    Calculating averages

Courant Number mean: 0.107772 max: 1.00671
deltaT = 0.21445
Time = 2.49423

PIMPLE: iteration 1
smoothSolver:  Solving for Ux, Initial residual = 0.00719281, Final residual = 0.000334589, No Iterations 2
smoothSolver:  Solving for Uz, Initial residual = 0.00821943, Final residual = 0.000102787, No Iterations 3
GAMG:  Solving for p, Initial residual = 0.00654792, Final residual = 4.87669e-05, No Iterations 3
time step continuity errors : sum local = 8.9461e-08, global = 2.47306e-08, cumulative = 6.07277e-07
GAMG:  Solving for p, Initial residual = 0.00265332, Final residual = 1.42265e-05, No Iterations 4
time step continuity errors : sum local = 2.60839e-08, global = -5.61368e-09, cumulative = 6.01663e-07
GAMG:  Solving for p, Initial residual = 0.00025096, Final residual = 8.97814e-08, No Iterations 5
time step continuity errors : sum local = 1.64612e-10, global = -3.58714e-11, cumulative = 6.01627e-07
PIMPLE: iteration 2
smoothSolver:  Solving for Ux, Initial residual = 0.000164138, Final residual = 2.97942e-07, No Iterations 4
smoothSolver:  Solving for Uz, Initial residual = 0.000348549, Final residual = 7.62449e-07, No Iterations 4
GAMG:  Solving for p, Initial residual = 0.00445691, Final residual = 2.34716e-05, No Iterations 4
time step continuity errors : sum local = 4.30776e-08, global = 1.77299e-09, cumulative = 6.034e-07
GAMG:  Solving for p, Initial residual = 0.00220063, Final residual = 1.44804e-05, No Iterations 4
time step continuity errors : sum local = 2.65879e-08, global = -1.30992e-09, cumulative = 6.0209e-07
GAMG:  Solving for p, Initial residual = 0.000178417, Final residual = 8.30633e-08, No Iterations 5
time step continuity errors : sum local = 1.52468e-10, global = 3.7319e-11, cumulative = 6.02128e-07
ExecutionTime = 0.36 s  ClockTime = 0 s

fieldAverage fieldAverage1 write:
    Calculating averages

Courant Number mean: 0.107858 max: 1.00545
deltaT = 0.21445
Time = 2.70868

PIMPLE: iteration 1
smoothSolver:  Solving for Ux, Initial residual = 0.00692612, Final residual = 0.000324044, No Iterations 2
smoothSolver:  Solving for Uz, Initial residual = 0.00788666, Final residual = 9.90572e-05, No Iterations 3
GAMG:  Solving for p, Initial residual = 0.00609928, Final residual = 4.70531e-05, No Iterations 3
time step continuity errors : sum local = 8.64615e-08, global = 2.30433e-08, cumulative = 6.25171e-07
GAMG:  Solving for p, Initial residual = 0.0024602, Final residual = 1.38998e-05, No Iterations 4
time step continuity errors : sum local = 2.55302e-08, global = -5.06969e-09, cumulative = 6.20101e-07
GAMG:  Solving for p, Initial residual = 0.000223327, Final residual = 8.28784e-08, No Iterations 5
time step continuity errors : sum local = 1.52228e-10, global = -3.34558e-11, cumulative = 6.20068e-07
PIMPLE: iteration 2
smoothSolver:  Solving for Ux, Initial residual = 0.000155768, Final residual = 2.86773e-07, No Iterations 4
smoothSolver:  Solving for Uz, Initial residual = 0.000323893, Final residual = 7.18034e-07, No Iterations 4
GAMG:  Solving for p, Initial residual = 0.0040584, Final residual = 2.22651e-05, No Iterations 4
time step continuity errors : sum local = 4.09322e-08, global = 1.67646e-09, cumulative = 6.21744e-07
GAMG:  Solving for p, Initial residual = 0.00204091, Final residual = 1.37217e-05, No Iterations 4
time step continuity errors : sum local = 2.52354e-08, global = -1.3241e-09, cumulative = 6.2042e-07
GAMG:  Solving for p, Initial residual = 0.000160082, Final residual = 7.83419e-08, No Iterations 5
time step continuity errors : sum local = 1.44034e-10, global = 3.40645e-11, cumulative = 6.20454e-07
ExecutionTime = 0.38 s  ClockTime = 0 s

fieldAverage fieldAverage1 write:
    Calculating averages

Courant Number mean: 0.107957 max: 1.00438
deltaT = 0.21445
Time = 2.92313

PIMPLE: iteration 1
smoothSolver:  Solving for Ux, Initial residual = 0.00668988, Final residual = 0.00031445, No Iterations 2
smoothSolver:  Solving for Uz, Initial residual = 0.00758527, Final residual = 9.55274e-05, No Iterations 3
GAMG:  Solving for p, Initial residual = 0.00545826, Final residual = 4.53911e-05, No Iterations 3
time step continuity errors : sum local = 8.35403e-08, global = 2.14206e-08, cumulative = 6.41875e-07
GAMG:  Solving for p, Initial residual = 0.00231204, Final residual = 1.36239e-05, No Iterations 4
time step continuity errors : sum local = 2.50653e-08, global = -4.64323e-09, cumulative = 6.37232e-07
GAMG:  Solving for p, Initial residual = 0.000207451, Final residual = 7.89187e-08, No Iterations 5
time step continuity errors : sum local = 1.45183e-10, global = -3.19353e-11, cumulative = 6.372e-07
PIMPLE: iteration 2
smoothSolver:  Solving for Ux, Initial residual = 0.000148978, Final residual = 2.77733e-07, No Iterations 4
smoothSolver:  Solving for Uz, Initial residual = 0.00030298, Final residual = 6.80474e-07, No Iterations 4
GAMG:  Solving for p, Initial residual = 0.00374562, Final residual = 2.14606e-05, No Iterations 4
time step continuity errors : sum local = 3.95134e-08, global = 1.67431e-09, cumulative = 6.38874e-07
GAMG:  Solving for p, Initial residual = 0.00190973, Final residual = 1.31446e-05, No Iterations 4
time step continuity errors : sum local = 2.42103e-08, global = -1.29921e-09, cumulative = 6.37575e-07
GAMG:  Solving for p, Initial residual = 0.000145446, Final residual = 7.65811e-08, No Iterations 5
time step continuity errors : sum local = 1.41008e-10, global = 3.72784e-11, cumulative = 6.37612e-07
ExecutionTime = 0.4 s  ClockTime = 0 s

fieldAverage fieldAverage1 write:
    Calculating averages

Courant Number mean: 0.108068 max: 1.00345
deltaT = 0.21445
Time = 3.13758

PIMPLE: iteration 1
smoothSolver:  Solving for Ux, Initial residual = 0.00646176, Final residual = 0.000305515, No Iterations 2
smoothSolver:  Solving for Uz, Initial residual = 0.00731753, Final residual = 9.23901e-05, No Iterations 3
GAMG:  Solving for p, Initial residual = 0.00501346, Final residual = 4.45209e-05, No Iterations 3
time step continuity errors : sum local = 8.20605e-08, global = 2.04126e-08, cumulative = 6.58025e-07
GAMG:  Solving for p, Initial residual = 0.00215005, Final residual = 1.32825e-05, No Iterations 4
time step continuity errors : sum local = 2.44771e-08, global = -4.10822e-09, cumulative = 6.53916e-07
GAMG:  Solving for p, Initial residual = 0.00018882, Final residual = 7.76153e-08, No Iterations 5
time step continuity errors : sum local = 1.43016e-10, global = -3.32869e-11, cumulative = 6.53883e-07
PIMPLE: iteration 2
smoothSolver:  Solving for Ux, Initial residual = 0.000142364, Final residual = 2.68254e-07, No Iterations 4
smoothSolver:  Solving for Uz, Initial residual = 0.000284354, Final residual = 6.46267e-07, No Iterations 4
GAMG:  Solving for p, Initial residual = 0.00348065, Final residual = 2.05272e-05, No Iterations 4
time step continuity errors : sum local = 3.78527e-08, global = 1.49374e-09, cumulative = 6.55377e-07
GAMG:  Solving for p, Initial residual = 0.00178788, Final residual = 1.25654e-05, No Iterations 4
time step continuity errors : sum local = 2.31788e-08, global = -1.27349e-09, cumulative = 6.54103e-07
GAMG:  Solving for p, Initial residual = 0.000132464, Final residual = 7.23253e-08, No Iterations 5
time step continuity errors : sum local = 1.33381e-10, global = 2.9053e-11, cumulative = 6.54132e-07
ExecutionTime = 0.42 s  ClockTime = 0 s

fieldAverage fieldAverage1 write:
    Calculating averages

Courant Number mean: 0.108198 max: 1.00263
deltaT = 0.21445
Time = 3.35204

PIMPLE: iteration 1
smoothSolver:  Solving for Ux, Initial residual = 0.00624821, Final residual = 0.000297172, No Iterations 2
smoothSolver:  Solving for Uz, Initial residual = 0.00706558, Final residual = 8.94378e-05, No Iterations 3
GAMG:  Solving for p, Initial residual = 0.00460804, Final residual = 4.36354e-05, No Iterations 3
time step continuity errors : sum local = 8.05503e-08, global = 1.93861e-08, cumulative = 6.73519e-07
GAMG:  Solving for p, Initial residual = 0.00200719, Final residual = 1.28923e-05, No Iterations 4
time step continuity errors : sum local = 2.37956e-08, global = -3.63034e-09, cumulative = 6.69888e-07
GAMG:  Solving for p, Initial residual = 0.000172477, Final residual = 7.6628e-08, No Iterations 5
time step continuity errors : sum local = 1.41419e-10, global = -3.42676e-11, cumulative = 6.69854e-07
PIMPLE: iteration 2
smoothSolver:  Solving for Ux, Initial residual = 0.000136401, Final residual = 2.59846e-07, No Iterations 4
smoothSolver:  Solving for Uz, Initial residual = 0.000267621, Final residual = 6.14802e-07, No Iterations 4
GAMG:  Solving for p, Initial residual = 0.00325481, Final residual = 1.96076e-05, No Iterations 4
time step continuity errors : sum local = 3.6214e-08, global = 1.31543e-09, cumulative = 6.71169e-07
GAMG:  Solving for p, Initial residual = 0.0016764, Final residual = 1.20478e-05, No Iterations 4
time step continuity errors : sum local = 2.22588e-08, global = -1.25132e-09, cumulative = 6.69918e-07
GAMG:  Solving for p, Initial residual = 0.000121175, Final residual = 6.90159e-08, No Iterations 5
time step continuity errors : sum local = 1.27474e-10, global = 2.2682e-11, cumulative = 6.69941e-07
ExecutionTime = 0.44 s  ClockTime = 0 s

fieldAverage fieldAverage1 write:
    Calculating averages

Courant Number mean: 0.108344 max: 1.0019
deltaT = 0.21445
Time = 3.56649

PIMPLE: iteration 1
smoothSolver:  Solving for Ux, Initial residual = 0.00606275, Final residual = 0.00028935, No Iterations 2
smoothSolver:  Solving for Uz, Initial residual = 0.00683037, Final residual = 8.66677e-05, No Iterations 3
GAMG:  Solving for p, Initial residual = 0.00472377, Final residual = 4.3516e-05, No Iterations 3
time step continuity errors : sum local = 8.04609e-08, global = 1.90909e-08, cumulative = 6.89032e-07
GAMG:  Solving for p, Initial residual = 0.00195794, Final residual = 1.23892e-05, No Iterations 4
time step continuity errors : sum local = 2.29078e-08, global = -3.03812e-09, cumulative = 6.85993e-07
GAMG:  Solving for p, Initial residual = 0.000171103, Final residual = 9.48361e-08, No Iterations 5
time step continuity errors : sum local = 1.75321e-10, global = -4.32572e-11, cumulative = 6.8595e-07
PIMPLE: iteration 2
smoothSolver:  Solving for Ux, Initial residual = 0.000131022, Final residual = 2.52303e-07, No Iterations 4
smoothSolver:  Solving for Uz, Initial residual = 0.000253356, Final residual = 5.87582e-07, No Iterations 4
GAMG:  Solving for p, Initial residual = 0.00303168, Final residual = 1.87406e-05, No Iterations 4
time step continuity errors : sum local = 3.46726e-08, global = 1.03781e-09, cumulative = 6.86988e-07
GAMG:  Solving for p, Initial residual = 0.00157157, Final residual = 1.16105e-05, No Iterations 4
time step continuity errors : sum local = 2.14894e-08, global = -1.21697e-09, cumulative = 6.85771e-07
GAMG:  Solving for p, Initial residual = 0.000110841, Final residual = 6.68999e-08, No Iterations 5
time step continuity errors : sum local = 1.23786e-10, global = 1.42098e-11, cumulative = 6.85785e-07
ExecutionTime = 0.46 s  ClockTime = 0 s

fieldAverage fieldAverage1 write:
    Calculating averages

Courant Number mean: 0.108509 max: 1.00124
deltaT = 0.21445
Time = 3.78094

PIMPLE: iteration 1
smoothSolver:  Solving for Ux, Initial residual = 0.00588966, Final residual = 0.000281868, No Iterations 2
smoothSolver:  Solving for Uz, Initial residual = 0.0066236, Final residual = 8.41849e-05, No Iterations 3
GAMG:  Solving for p, Initial residual = 0.00426221, Final residual = 4.19265e-05, No Iterations 3
time step continuity errors : sum local = 7.7657e-08, global = 1.7537e-08, cumulative = 7.03322e-07
GAMG:  Solving for p, Initial residual = 0.00182148, Final residual = 1.23721e-05, No Iterations 4
time step continuity errors : sum local = 2.29172e-08, global = -2.85307e-09, cumulative = 7.00469e-07
GAMG:  Solving for p, Initial residual = 0.000154951, Final residual = 7.33617e-08, No Iterations 5
time step continuity errors : sum local = 1.35866e-10, global = -3.38358e-11, cumulative = 7.00435e-07
PIMPLE: iteration 2
smoothSolver:  Solving for Ux, Initial residual = 0.000125667, Final residual = 2.45193e-07, No Iterations 4
smoothSolver:  Solving for Uz, Initial residual = 0.000239953, Final residual = 5.62287e-07, No Iterations 4
GAMG:  Solving for p, Initial residual = 0.00285446, Final residual = 1.82415e-05, No Iterations 4
time step continuity errors : sum local = 3.38079e-08, global = 1.06368e-09, cumulative = 7.01499e-07
GAMG:  Solving for p, Initial residual = 0.00148462, Final residual = 1.12327e-05, No Iterations 4
time step continuity errors : sum local = 2.0826e-08, global = -1.18191e-09, cumulative = 7.00317e-07
GAMG:  Solving for p, Initial residual = 0.00010275, Final residual = 6.46597e-08, No Iterations 5
time step continuity errors : sum local = 1.19851e-10, global = 1.65764e-11, cumulative = 7.00334e-07
ExecutionTime = 0.48 s  ClockTime = 0 s

fieldAverage fieldAverage1 write:
    Calculating averages

Courant Number mean: 0.108694 max: 1.00065
deltaT = 0.21445
Time = 3.99539

PIMPLE: iteration 1
smoothSolver:  Solving for Ux, Initial residual = 0.00572525, Final residual = 0.000275117, No Iterations 2
smoothSolver:  Solving for Uz, Initial residual = 0.0064314, Final residual = 8.17884e-05, No Iterations 3
GAMG:  Solving for p, Initial residual = 0.00399618, Final residual = 1.11927e-05, No Iterations 4
time step continuity errors : sum local = 2.07664e-08, global = 4.55778e-09, cumulative = 7.04891e-07
GAMG:  Solving for p, Initial residual = 0.00175246, Final residual = 1.04539e-05, No Iterations 4
time step continuity errors : sum local = 1.93941e-08, global = -4.86654e-09, cumulative = 7.00025e-07
GAMG:  Solving for p, Initial residual = 0.000131025, Final residual = 2.2148e-08, No Iterations 5
time step continuity errors : sum local = 4.10891e-11, global = -1.15923e-11, cumulative = 7.00013e-07
PIMPLE: iteration 2
smoothSolver:  Solving for Ux, Initial residual = 0.000123896, Final residual = 2.45761e-07, No Iterations 4
smoothSolver:  Solving for Uz, Initial residual = 0.000228223, Final residual = 5.39136e-07, No Iterations 4
GAMG:  Solving for p, Initial residual = 0.00268294, Final residual = 1.7849e-05, No Iterations 4
time step continuity errors : sum local = 3.3136e-08, global = 3.37757e-09, cumulative = 7.03391e-07
GAMG:  Solving for p, Initial residual = 0.00140205, Final residual = 1.08773e-05, No Iterations 4
time step continuity errors : sum local = 2.01992e-08, global = -9.62031e-10, cumulative = 7.02429e-07
GAMG:  Solving for p, Initial residual = 9.56712e-05, Final residual = 8.56608e-08, No Iterations 6
time step continuity errors : sum local = 1.59036e-10, global = -3.49797e-11, cumulative = 7.02394e-07
ExecutionTime = 0.5 s  ClockTime = 0 s

fieldAverage fieldAverage1 write:
    Calculating averages

surfaceFieldValue surfaceFieldValue1 write:
    areaAverage(outlet) of U = (0.00522234 0 -0.0923636)
    areaAverage(outlet) of phi = 0.00025

surfaceFieldValue surfaceFieldValue2 write:
    areaAverage(inlet) of U = (0 0 -0.1)
    areaAverage(inlet) of phi = -0.00025

Courant Number mean: 0.108895 max: 1.00011
deltaT = 0.21445
Time = 4.20984

PIMPLE: iteration 1
smoothSolver:  Solving for Ux, Initial residual = 0.00556837, Final residual = 0.000268796, No Iterations 2
smoothSolver:  Solving for Uz, Initial residual = 0.0062471, Final residual = 7.95255e-05, No Iterations 3
GAMG:  Solving for p, Initial residual = 0.00375636, Final residual = 1.09815e-05, No Iterations 4
time step continuity errors : sum local = 2.04072e-08, global = 4.4262e-09, cumulative = 7.0682e-07
GAMG:  Solving for p, Initial residual = 0.00167062, Final residual = 1.0369e-05, No Iterations 4
time step continuity errors : sum local = 1.9268e-08, global = -4.69322e-09, cumulative = 7.02127e-07
GAMG:  Solving for p, Initial residual = 0.000123289, Final residual = 2.09393e-08, No Iterations 5
time step continuity errors : sum local = 3.89098e-11, global = -1.0923e-11, cumulative = 7.02116e-07
PIMPLE: iteration 2
smoothSolver:  Solving for Ux, Initial residual = 0.000119368, Final residual = 2.39107e-07, No Iterations 4
smoothSolver:  Solving for Uz, Initial residual = 0.000217178, Final residual = 5.17543e-07, No Iterations 4
GAMG:  Solving for p, Initial residual = 0.00253793, Final residual = 1.72929e-05, No Iterations 4
time step continuity errors : sum local = 3.21552e-08, global = 3.261e-09, cumulative = 7.05377e-07
GAMG:  Solving for p, Initial residual = 0.00132752, Final residual = 1.05336e-05, No Iterations 4
time step continuity errors : sum local = 1.95921e-08, global = -9.43134e-10, cumulative = 7.04434e-07
GAMG:  Solving for p, Initial residual = 8.94529e-05, Final residual = 8.23096e-08, No Iterations 6
time step continuity errors : sum local = 1.53057e-10, global = -3.3321e-11, cumulative = 7.04401e-07
ExecutionTime = 0.52 s  ClockTime = 0 s

fieldAverage fieldAverage1 write:
    Calculating averages

Courant Number mean: 0.10911 max: 0.999621
deltaT = 0.21445
Time = 4.42429

PIMPLE: iteration 1
smoothSolver:  Solving for Ux, Initial residual = 0.00542289, Final residual = 0.000262753, No Iterations 2
smoothSolver:  Solving for Uz, Initial residual = 0.00607337, Final residual = 7.74085e-05, No Iterations 3
GAMG:  Solving for p, Initial residual = 0.00357165, Final residual = 1.07622e-05, No Iterations 4
time step continuity errors : sum local = 2.00311e-08, global = 4.30537e-09, cumulative = 7.08706e-07
GAMG:  Solving for p, Initial residual = 0.00159841, Final residual = 1.02377e-05, No Iterations 4
time step continuity errors : sum local = 1.90546e-08, global = -4.52713e-09, cumulative = 7.04179e-07
GAMG:  Solving for p, Initial residual = 0.000116776, Final residual = 1.97964e-08, No Iterations 5
time step continuity errors : sum local = 3.68448e-11, global = -1.03013e-11, cumulative = 7.04168e-07
PIMPLE: iteration 2
smoothSolver:  Solving for Ux, Initial residual = 0.000115329, Final residual = 2.32755e-07, No Iterations 4
smoothSolver:  Solving for Uz, Initial residual = 0.000207491, Final residual = 4.97643e-07, No Iterations 4
GAMG:  Solving for p, Initial residual = 0.0024106, Final residual = 1.67387e-05, No Iterations 4
time step continuity errors : sum local = 3.11737e-08, global = 3.14622e-09, cumulative = 7.07315e-07
GAMG:  Solving for p, Initial residual = 0.00125967, Final residual = 1.02149e-05, No Iterations 4
time step continuity errors : sum local = 1.9029e-08, global = -9.28742e-10, cumulative = 7.06386e-07
GAMG:  Solving for p, Initial residual = 8.41304e-05, Final residual = 7.8625e-08, No Iterations 6
time step continuity errors : sum local = 1.46434e-10, global = -3.17662e-11, cumulative = 7.06354e-07
ExecutionTime = 0.55 s  ClockTime = 0 s

fieldAverage fieldAverage1 write:
    Calculating averages

Courant Number mean: 0.109342 max: 0.999167
deltaT = 0.21445
Time = 4.63874

PIMPLE: iteration 1
smoothSolver:  Solving for Ux, Initial residual = 0.00529236, Final residual = 0.000256944, No Iterations 2
smoothSolver:  Solving for Uz, Initial residual = 0.0059078, Final residual = 7.54184e-05, No Iterations 3
GAMG:  Solving for p, Initial residual = 0.00347625, Final residual = 1.04989e-05, No Iterations 4
time step continuity errors : sum local = 1.95707e-08, global = 4.15149e-09, cumulative = 7.10506e-07
GAMG:  Solving for p, Initial residual = 0.00152414, Final residual = 1.00549e-05, No Iterations 4
time step continuity errors : sum local = 1.87435e-08, global = -4.34376e-09, cumulative = 7.06162e-07
GAMG:  Solving for p, Initial residual = 0.000110565, Final residual = 9.95577e-08, No Iterations 4
time step continuity errors : sum local = 1.85582e-10, global = -3.5534e-11, cumulative = 7.06126e-07
PIMPLE: iteration 2
smoothSolver:  Solving for Ux, Initial residual = 0.000111568, Final residual = 2.26903e-07, No Iterations 4
smoothSolver:  Solving for Uz, Initial residual = 0.000198285, Final residual = 4.79358e-07, No Iterations 4
GAMG:  Solving for p, Initial residual = 0.00229339, Final residual = 1.62049e-05, No Iterations 4
time step continuity errors : sum local = 3.0225e-08, global = 3.00675e-09, cumulative = 7.09133e-07
GAMG:  Solving for p, Initial residual = 0.0011979, Final residual = 9.92347e-06, No Iterations 4
time step continuity errors : sum local = 1.85138e-08, global = -9.06093e-10, cumulative = 7.08227e-07
GAMG:  Solving for p, Initial residual = 7.92816e-05, Final residual = 7.49009e-08, No Iterations 6
time step continuity errors : sum local = 1.3971e-10, global = -2.97682e-11, cumulative = 7.08197e-07
ExecutionTime = 0.57 s  ClockTime = 0 s

fieldAverage fieldAverage1 write:
    Calculating averages

Courant Number mean: 0.109593 max: 0.998747
deltaT = 0.21445
Time = 4.85319

PIMPLE: iteration 1
smoothSolver:  Solving for Ux, Initial residual = 0.00516639, Final residual = 0.000251374, No Iterations 2
smoothSolver:  Solving for Uz, Initial residual = 0.0057502, Final residual = 7.35171e-05, No Iterations 3
GAMG:  Solving for p, Initial residual = 0.00323255, Final residual = 1.07456e-05, No Iterations 4
time step continuity errors : sum local = 2.00602e-08, global = 4.35612e-09, cumulative = 7.12553e-07
GAMG:  Solving for p, Initial residual = 0.0014924, Final residual = 1.01763e-05, No Iterations 4
time step continuity errors : sum local = 1.89981e-08, global = -4.27104e-09, cumulative = 7.08282e-07
GAMG:  Solving for p, Initial residual = 0.000107029, Final residual = 9.89208e-08, No Iterations 4
time step continuity errors : sum local = 1.84663e-10, global = -4.21377e-11, cumulative = 7.0824e-07
PIMPLE: iteration 2
smoothSolver:  Solving for Ux, Initial residual = 0.000107846, Final residual = 9.99045e-07, No Iterations 3
smoothSolver:  Solving for Uz, Initial residual = 0.00019028, Final residual = 4.63799e-07, No Iterations 4
GAMG:  Solving for p, Initial residual = 0.00218255, Final residual = 1.57627e-05, No Iterations 4
time step continuity errors : sum local = 2.94404e-08, global = 2.83535e-09, cumulative = 7.11076e-07
GAMG:  Solving for p, Initial residual = 0.001142, Final residual = 9.66267e-06, No Iterations 4
time step continuity errors : sum local = 1.80508e-08, global = -9.16779e-10, cumulative = 7.10159e-07
GAMG:  Solving for p, Initial residual = 7.50685e-05, Final residual = 7.02179e-08, No Iterations 6
time step continuity errors : sum local = 1.31149e-10, global = -2.42069e-11, cumulative = 7.10135e-07
ExecutionTime = 0.59 s  ClockTime = 0 s

fieldAverage fieldAverage1 write:
    Calculating averages

Courant Number mean: 0.109856 max: 0.998356
deltaT = 0.21445
Time = 5.06764

PIMPLE: iteration 1
smoothSolver:  Solving for Ux, Initial residual = 0.0050445, Final residual = 0.000246111, No Iterations 2
smoothSolver:  Solving for Uz, Initial residual = 0.00560573, Final residual = 7.17537e-05, No Iterations 3
GAMG:  Solving for p, Initial residual = 0.00309748, Final residual = 1.05396e-05, No Iterations 4
time step continuity errors : sum local = 1.97012e-08, global = 4.22069e-09, cumulative = 7.14355e-07
GAMG:  Solving for p, Initial residual = 0.00143872, Final residual = 1.00684e-05, No Iterations 4
time step continuity errors : sum local = 1.88214e-08, global = -4.12299e-09, cumulative = 7.10232e-07
GAMG:  Solving for p, Initial residual = 0.000103312, Final residual = 9.48665e-08, No Iterations 4
time step continuity errors : sum local = 1.77326e-10, global = -4.03859e-11, cumulative = 7.10192e-07
PIMPLE: iteration 2
smoothSolver:  Solving for Ux, Initial residual = 0.00010464, Final residual = 9.72965e-07, No Iterations 3
smoothSolver:  Solving for Uz, Initial residual = 0.000182847, Final residual = 4.48378e-07, No Iterations 4
GAMG:  Solving for p, Initial residual = 0.00208704, Final residual = 1.53421e-05, No Iterations 4
time step continuity errors : sum local = 2.86915e-08, global = 2.75075e-09, cumulative = 7.12943e-07
GAMG:  Solving for p, Initial residual = 0.00109314, Final residual = 9.43652e-06, No Iterations 4
time step continuity errors : sum local = 1.76506e-08, global = -8.96403e-10, cumulative = 7.12046e-07
GAMG:  Solving for p, Initial residual = 7.15656e-05, Final residual = 6.76301e-08, No Iterations 6
time step continuity errors : sum local = 1.26476e-10, global = -2.34394e-11, cumulative = 7.12023e-07
ExecutionTime = 0.61 s  ClockTime = 0 s

fieldAverage fieldAverage1 write:
    Calculating averages

Courant Number mean: 0.110128 max: 0.997992
deltaT = 0.21445
Time = 5.28209

PIMPLE: iteration 1
smoothSolver:  Solving for Ux, Initial residual = 0.00492856, Final residual = 0.000241246, No Iterations 2
smoothSolver:  Solving for Uz, Initial residual = 0.00546817, Final residual = 7.00614e-05, No Iterations 3
GAMG:  Solving for p, Initial residual = 0.0029673, Final residual = 1.02875e-05, No Iterations 4
time step continuity errors : sum local = 1.92541e-08, global = 4.05956e-09, cumulative = 7.16082e-07
GAMG:  Solving for p, Initial residual = 0.00138151, Final residual = 9.92899e-06, No Iterations 4
time step continuity errors : sum local = 1.85841e-08, global = -3.97398e-09, cumulative = 7.12108e-07
GAMG:  Solving for p, Initial residual = 9.84533e-05, Final residual = 8.98589e-08, No Iterations 4
time step continuity errors : sum local = 1.68175e-10, global = -3.72302e-11, cumulative = 7.12071e-07
PIMPLE: iteration 2
smoothSolver:  Solving for Ux, Initial residual = 0.000101574, Final residual = 9.48595e-07, No Iterations 3
smoothSolver:  Solving for Uz, Initial residual = 0.00017579, Final residual = 4.33546e-07, No Iterations 4
GAMG:  Solving for p, Initial residual = 0.00199847, Final residual = 1.49725e-05, No Iterations 4
time step continuity errors : sum local = 2.8035e-08, global = 2.68907e-09, cumulative = 7.1476e-07
GAMG:  Solving for p, Initial residual = 0.00104797, Final residual = 9.22892e-06, No Iterations 4
time step continuity errors : sum local = 1.72835e-08, global = -8.65477e-10, cumulative = 7.13895e-07
GAMG:  Solving for p, Initial residual = 6.84755e-05, Final residual = 6.55676e-08, No Iterations 6
time step continuity errors : sum local = 1.22768e-10, global = -2.3167e-11, cumulative = 7.13872e-07
ExecutionTime = 0.63 s  ClockTime = 0 s

fieldAverage fieldAverage1 write:
    Calculating averages

Courant Number mean: 0.110406 max: 0.997651
deltaT = 0.21445
Time = 5.49654

PIMPLE: iteration 1
smoothSolver:  Solving for Ux, Initial residual = 0.00481979, Final residual = 0.000236631, No Iterations 2
smoothSolver:  Solving for Uz, Initial residual = 0.00533535, Final residual = 6.84369e-05, No Iterations 3
GAMG:  Solving for p, Initial residual = 0.00281118, Final residual = 9.93169e-06, No Iterations 4
time step continuity errors : sum local = 1.861e-08, global = 3.84625e-09, cumulative = 7.17718e-07
GAMG:  Solving for p, Initial residual = 0.00132289, Final residual = 9.76354e-06, No Iterations 4
time step continuity errors : sum local = 1.82959e-08, global = -3.82371e-09, cumulative = 7.13894e-07
GAMG:  Solving for p, Initial residual = 9.2122e-05, Final residual = 8.38807e-08, No Iterations 4
time step continuity errors : sum local = 1.57171e-10, global = -3.25052e-11, cumulative = 7.13862e-07
PIMPLE: iteration 2
smoothSolver:  Solving for Ux, Initial residual = 9.87135e-05, Final residual = 9.26206e-07, No Iterations 3
smoothSolver:  Solving for Uz, Initial residual = 0.000169088, Final residual = 4.18988e-07, No Iterations 4
GAMG:  Solving for p, Initial residual = 0.0019185, Final residual = 1.46024e-05, No Iterations 4
time step continuity errors : sum local = 2.73735e-08, global = 2.64041e-09, cumulative = 7.16502e-07
GAMG:  Solving for p, Initial residual = 0.00100519, Final residual = 9.02846e-06, No Iterations 4
time step continuity errors : sum local = 1.69276e-08, global = -8.30474e-10, cumulative = 7.15672e-07
GAMG:  Solving for p, Initial residual = 6.53606e-05, Final residual = 6.3626e-08, No Iterations 6
time step continuity errors : sum local = 1.19271e-10, global = -2.34512e-11, cumulative = 7.15648e-07
ExecutionTime = 0.66 s  ClockTime = 0 s

fieldAverage fieldAverage1 write:
    Calculating averages

Courant Number mean: 0.11069 max: 0.997331
deltaT = 0.21445
Time = 5.71099

PIMPLE: iteration 1
smoothSolver:  Solving for Ux, Initial residual = 0.00472137, Final residual = 0.000232159, No Iterations 2
smoothSolver:  Solving for Uz, Initial residual = 0.00520825, Final residual = 6.68813e-05, No Iterations 3
GAMG:  Solving for p, Initial residual = 0.00274486, Final residual = 9.84084e-06, No Iterations 4
time step continuity errors : sum local = 1.84609e-08, global = 3.8085e-09, cumulative = 7.19457e-07
GAMG:  Solving for p, Initial residual = 0.00127911, Final residual = 9.68881e-06, No Iterations 4
time step continuity errors : sum local = 1.81769e-08, global = -3.69616e-09, cumulative = 7.1576e-07
GAMG:  Solving for p, Initial residual = 8.95752e-05, Final residual = 8.10084e-08, No Iterations 4
time step continuity errors : sum local = 1.51963e-10, global = -3.31061e-11, cumulative = 7.15727e-07
PIMPLE: iteration 2
smoothSolver:  Solving for Ux, Initial residual = 9.57919e-05, Final residual = 9.04095e-07, No Iterations 3
smoothSolver:  Solving for Uz, Initial residual = 0.000162873, Final residual = 4.05648e-07, No Iterations 4
GAMG:  Solving for p, Initial residual = 0.00183885, Final residual = 1.4238e-05, No Iterations 4
time step continuity errors : sum local = 2.67209e-08, global = 2.53808e-09, cumulative = 7.18265e-07
GAMG:  Solving for p, Initial residual = 0.000964151, Final residual = 8.8285e-06, No Iterations 4
time step continuity errors : sum local = 1.65715e-08, global = -8.16035e-10, cumulative = 7.17449e-07
GAMG:  Solving for p, Initial residual = 6.2461e-05, Final residual = 6.00388e-08, No Iterations 6
time step continuity errors : sum local = 1.12675e-10, global = -2.08454e-11, cumulative = 7.17428e-07
ExecutionTime = 0.68 s  ClockTime = 0 s

fieldAverage fieldAverage1 write:
    Calculating averages

Courant Number mean: 0.110979 max: 0.997029
deltaT = 0.21445
Time = 5.92544

PIMPLE: iteration 1
smoothSolver:  Solving for Ux, Initial residual = 0.00462688, Final residual = 0.000227788, No Iterations 2
smoothSolver:  Solving for Uz, Initial residual = 0.00508542, Final residual = 6.53816e-05, No Iterations 3
GAMG:  Solving for p, Initial residual = 0.00266925, Final residual = 9.76259e-06, No Iterations 4
time step continuity errors : sum local = 1.83347e-08, global = 3.77594e-09, cumulative = 7.21204e-07
GAMG:  Solving for p, Initial residual = 0.00124191, Final residual = 9.60511e-06, No Iterations 4
time step continuity errors : sum local = 1.80403e-08, global = -3.57145e-09, cumulative = 7.17633e-07
GAMG:  Solving for p, Initial residual = 8.67782e-05, Final residual = 7.87097e-08, No Iterations 4
time step continuity errors : sum local = 1.47817e-10, global = -3.36587e-11, cumulative = 7.17599e-07
PIMPLE: iteration 2
smoothSolver:  Solving for Ux, Initial residual = 9.32239e-05, Final residual = 8.83002e-07, No Iterations 3
smoothSolver:  Solving for Uz, Initial residual = 0.000157173, Final residual = 3.93229e-07, No Iterations 4
GAMG:  Solving for p, Initial residual = 0.0017669, Final residual = 1.38955e-05, No Iterations 4
time step continuity errors : sum local = 2.61066e-08, global = 2.44414e-09, cumulative = 7.20043e-07
GAMG:  Solving for p, Initial residual = 0.000927065, Final residual = 8.64099e-06, No Iterations 4
time step continuity errors : sum local = 1.62372e-08, global = -8.00309e-10, cumulative = 7.19243e-07
GAMG:  Solving for p, Initial residual = 5.98844e-05, Final residual = 5.66088e-08, No Iterations 6
time step continuity errors : sum local = 1.06355e-10, global = -1.84784e-11, cumulative = 7.19225e-07
ExecutionTime = 0.7 s  ClockTime = 0 s

fieldAverage fieldAverage1 write:
    Calculating averages

Courant Number mean: 0.111273 max: 0.996744
deltaT = 0.21445
Time = 6.13989

PIMPLE: iteration 1
smoothSolver:  Solving for Ux, Initial residual = 0.00453454, Final residual = 0.000223526, No Iterations 2
smoothSolver:  Solving for Uz, Initial residual = 0.00496881, Final residual = 6.39461e-05, No Iterations 3
GAMG:  Solving for p, Initial residual = 0.00256732, Final residual = 9.46943e-06, No Iterations 4
time step continuity errors : sum local = 1.78029e-08, global = 3.56779e-09, cumulative = 7.22792e-07
GAMG:  Solving for p, Initial residual = 0.00119914, Final residual = 9.47596e-06, No Iterations 4
time step continuity errors : sum local = 1.78162e-08, global = -3.45025e-09, cumulative = 7.19342e-07
GAMG:  Solving for p, Initial residual = 8.39887e-05, Final residual = 7.45965e-08, No Iterations 4
time step continuity errors : sum local = 1.40238e-10, global = -2.94159e-11, cumulative = 7.19313e-07
PIMPLE: iteration 2
smoothSolver:  Solving for Ux, Initial residual = 9.08007e-05, Final residual = 8.64022e-07, No Iterations 3
smoothSolver:  Solving for Uz, Initial residual = 0.000151824, Final residual = 3.81768e-07, No Iterations 4
GAMG:  Solving for p, Initial residual = 0.00169797, Final residual = 1.36041e-05, No Iterations 4
time step continuity errors : sum local = 2.55851e-08, global = 2.41187e-09, cumulative = 7.21725e-07
GAMG:  Solving for p, Initial residual = 0.00089143, Final residual = 8.48246e-06, No Iterations 4
time step continuity errors : sum local = 1.59552e-08, global = -7.66488e-10, cumulative = 7.20958e-07
GAMG:  Solving for p, Initial residual = 5.76735e-05, Final residual = 5.55391e-08, No Iterations 6
time step continuity errors : sum local = 1.0445e-10, global = -1.9275e-11, cumulative = 7.20939e-07
ExecutionTime = 0.72 s  ClockTime = 0 s

fieldAverage fieldAverage1 write:
    Calculating averages

surfaceFieldValue surfaceFieldValue1 write:
    areaAverage(outlet) of U = (0.00484444 0 -0.092407)
    areaAverage(outlet) of phi = 0.00025

surfaceFieldValue surfaceFieldValue2 write:
    areaAverage(inlet) of U = (0 0 -0.1)
    areaAverage(inlet) of phi = -0.00025

Courant Number mean: 0.11157 max: 0.996474
deltaT = 0.21445
Time = 6.35434

PIMPLE: iteration 1
smoothSolver:  Solving for Ux, Initial residual = 0.00444429, Final residual = 0.000219431, No Iterations 2
smoothSolver:  Solving for Uz, Initial residual = 0.00485904, Final residual = 6.2568e-05, No Iterations 3
GAMG:  Solving for p, Initial residual = 0.00246912, Final residual = 9.72501e-06, No Iterations 4
time step continuity errors : sum local = 1.8301e-08, global = 3.73305e-09, cumulative = 7.24672e-07
GAMG:  Solving for p, Initial residual = 0.00117732, Final residual = 9.48272e-06, No Iterations 4
time step continuity errors : sum local = 1.7846e-08, global = -3.32736e-09, cumulative = 7.21345e-07
GAMG:  Solving for p, Initial residual = 8.10254e-05, Final residual = 7.71834e-08, No Iterations 4
time step continuity errors : sum local = 1.4524e-10, global = -3.62451e-11, cumulative = 7.21308e-07
PIMPLE: iteration 2
smoothSolver:  Solving for Ux, Initial residual = 8.83718e-05, Final residual = 8.43893e-07, No Iterations 3
smoothSolver:  Solving for Uz, Initial residual = 0.000146662, Final residual = 3.70914e-07, No Iterations 4
GAMG:  Solving for p, Initial residual = 0.00164204, Final residual = 1.32711e-05, No Iterations 4
time step continuity errors : sum local = 2.49819e-08, global = 2.25275e-09, cumulative = 7.23561e-07
GAMG:  Solving for p, Initial residual = 0.000859838, Final residual = 8.30566e-06, No Iterations 4
time step continuity errors : sum local = 1.56369e-08, global = -7.73576e-10, cumulative = 7.22788e-07
GAMG:  Solving for p, Initial residual = 5.55888e-05, Final residual = 4.93861e-08, No Iterations 6
time step continuity errors : sum local = 9.29643e-11, global = -1.29564e-11, cumulative = 7.22775e-07
ExecutionTime = 0.74 s  ClockTime = 0 s

fieldAverage fieldAverage1 write:
    Calculating averages

Courant Number mean: 0.111869 max: 0.996219
deltaT = 0.21445
Time = 6.56879

PIMPLE: iteration 1
smoothSolver:  Solving for Ux, Initial residual = 0.0043582, Final residual = 0.000215606, No Iterations 2
smoothSolver:  Solving for Uz, Initial residual = 0.00475473, Final residual = 6.12511e-05, No Iterations 3
GAMG:  Solving for p, Initial residual = 0.00237783, Final residual = 9.30932e-06, No Iterations 4
time step continuity errors : sum local = 1.75361e-08, global = 3.49146e-09, cumulative = 7.26266e-07
GAMG:  Solving for p, Initial residual = 0.00114062, Final residual = 9.33863e-06, No Iterations 4
time step continuity errors : sum local = 1.75936e-08, global = -3.2302e-09, cumulative = 7.23036e-07
GAMG:  Solving for p, Initial residual = 8.00476e-05, Final residual = 7.1931e-08, No Iterations 4
time step continuity errors : sum local = 1.355e-10, global = -3.08899e-11, cumulative = 7.23005e-07
PIMPLE: iteration 2
smoothSolver:  Solving for Ux, Initial residual = 8.61275e-05, Final residual = 8.26685e-07, No Iterations 3
smoothSolver:  Solving for Uz, Initial residual = 0.000141872, Final residual = 3.60339e-07, No Iterations 4
GAMG:  Solving for p, Initial residual = 0.00158055, Final residual = 1.30276e-05, No Iterations 4
time step continuity errors : sum local = 2.45495e-08, global = 2.2558e-09, cumulative = 7.25261e-07
GAMG:  Solving for p, Initial residual = 0.000829503, Final residual = 8.17058e-06, No Iterations 4
time step continuity errors : sum local = 1.53988e-08, global = -7.33679e-10, cumulative = 7.24527e-07
GAMG:  Solving for p, Initial residual = 5.36819e-05, Final residual = 5.00198e-08, No Iterations 6
time step continuity errors : sum local = 9.42569e-11, global = -1.56515e-11, cumulative = 7.24511e-07
ExecutionTime = 0.76 s  ClockTime = 0 s

fieldAverage fieldAverage1 write:
    Calculating averages

Courant Number mean: 0.112169 max: 0.995975
deltaT = 0.21445
Time = 6.78324

PIMPLE: iteration 1
smoothSolver:  Solving for Ux, Initial residual = 0.00427601, Final residual = 0.000211982, No Iterations 2
smoothSolver:  Solving for Uz, Initial residual = 0.00465363, Final residual = 5.99902e-05, No Iterations 3
GAMG:  Solving for p, Initial residual = 0.00226218, Final residual = 9.31096e-06, No Iterations 4
time step continuity errors : sum local = 1.75563e-08, global = 3.51069e-09, cumulative = 7.28022e-07
GAMG:  Solving for p, Initial residual = 0.00109999, Final residual = 9.24779e-06, No Iterations 4
time step continuity errors : sum local = 1.74387e-08, global = -3.10789e-09, cumulative = 7.24914e-07
GAMG:  Solving for p, Initial residual = 7.61365e-05, Final residual = 7.13322e-08, No Iterations 4
time step continuity errors : sum local = 1.34498e-10, global = -3.33746e-11, cumulative = 7.24881e-07
PIMPLE: iteration 2
smoothSolver:  Solving for Ux, Initial residual = 8.39547e-05, Final residual = 8.08277e-07, No Iterations 3
smoothSolver:  Solving for Uz, Initial residual = 0.000137213, Final residual = 3.50046e-07, No Iterations 4
GAMG:  Solving for p, Initial residual = 0.00152524, Final residual = 1.27306e-05, No Iterations 4
time step continuity errors : sum local = 2.40118e-08, global = 2.14011e-09, cumulative = 7.27021e-07
GAMG:  Solving for p, Initial residual = 0.000800807, Final residual = 8.00703e-06, No Iterations 4
time step continuity errors : sum local = 1.51044e-08, global = -7.27529e-10, cumulative = 7.26293e-07
GAMG:  Solving for p, Initial residual = 5.17581e-05, Final residual = 4.51238e-08, No Iterations 6
time step continuity errors : sum local = 8.51088e-11, global = -1.1155e-11, cumulative = 7.26282e-07
ExecutionTime = 0.78 s  ClockTime = 0 s

fieldAverage fieldAverage1 write:
    Calculating averages

Courant Number mean: 0.112471 max: 0.995743
deltaT = 0.21445
Time = 6.99769

PIMPLE: iteration 1
smoothSolver:  Solving for Ux, Initial residual = 0.00419816, Final residual = 0.000208499, No Iterations 2
smoothSolver:  Solving for Uz, Initial residual = 0.00455459, Final residual = 5.87703e-05, No Iterations 3
GAMG:  Solving for p, Initial residual = 0.00222095, Final residual = 9.20055e-06, No Iterations 4
time step continuity errors : sum local = 1.73641e-08, global = 3.458e-09, cumulative = 7.2974e-07
GAMG:  Solving for p, Initial residual = 0.0010704, Final residual = 9.1459e-06, No Iterations 4
time step continuity errors : sum local = 1.72628e-08, global = -3.00198e-09, cumulative = 7.26738e-07
GAMG:  Solving for p, Initial residual = 7.43269e-05, Final residual = 7.01778e-08, No Iterations 4
time step continuity errors : sum local = 1.32445e-10, global = -3.35377e-11, cumulative = 7.26705e-07
PIMPLE: iteration 2
smoothSolver:  Solving for Ux, Initial residual = 8.19512e-05, Final residual = 7.91236e-07, No Iterations 3
smoothSolver:  Solving for Uz, Initial residual = 0.000132924, Final residual = 3.40735e-07, No Iterations 4
GAMG:  Solving for p, Initial residual = 0.00147522, Final residual = 1.24604e-05, No Iterations 4
time step continuity errors : sum local = 2.35235e-08, global = 2.0704e-09, cumulative = 7.28775e-07
GAMG:  Solving for p, Initial residual = 0.00077414, Final residual = 2.95585e-06, No Iterations 5
time step continuity errors : sum local = 5.58094e-09, global = -4.01749e-10, cumulative = 7.28373e-07
GAMG:  Solving for p, Initial residual = 4.38694e-05, Final residual = 8.80281e-08, No Iterations 5
time step continuity errors : sum local = 1.66186e-10, global = -2.20049e-11, cumulative = 7.28351e-07
ExecutionTime = 0.81 s  ClockTime = 0 s

fieldAverage fieldAverage1 write:
    Calculating averages

Courant Number mean: 0.112774 max: 0.995522
deltaT = 0.21445
Time = 7.21214

PIMPLE: iteration 1
smoothSolver:  Solving for Ux, Initial residual = 0.00412522, Final residual = 0.000205081, No Iterations 2
smoothSolver:  Solving for Uz, Initial residual = 0.00445889, Final residual = 5.75878e-05, No Iterations 3
GAMG:  Solving for p, Initial residual = 0.00216981, Final residual = 8.70896e-06, No Iterations 4
time step continuity errors : sum local = 1.64513e-08, global = 3.18071e-09, cumulative = 7.31532e-07
GAMG:  Solving for p, Initial residual = 0.00105058, Final residual = 8.8952e-06, No Iterations 4
time step continuity errors : sum local = 1.68049e-08, global = -2.87991e-09, cumulative = 7.28652e-07
GAMG:  Solving for p, Initial residual = 7.29576e-05, Final residual = 6.33945e-08, No Iterations 4
time step continuity errors : sum local = 1.19752e-10, global = -2.81356e-11, cumulative = 7.28624e-07
PIMPLE: iteration 2
smoothSolver:  Solving for Ux, Initial residual = 8.0054e-05, Final residual = 7.76032e-07, No Iterations 3
smoothSolver:  Solving for Uz, Initial residual = 0.000128967, Final residual = 3.31634e-07, No Iterations 4
GAMG:  Solving for p, Initial residual = 0.00142868, Final residual = 1.22196e-05, No Iterations 4
time step continuity errors : sum local = 2.30894e-08, global = 2.04871e-09, cumulative = 7.30673e-07
GAMG:  Solving for p, Initial residual = 0.000748716, Final residual = 2.89533e-06, No Iterations 5
time step continuity errors : sum local = 5.47148e-09, global = -3.84191e-10, cumulative = 7.30289e-07
GAMG:  Solving for p, Initial residual = 4.24175e-05, Final residual = 8.70483e-08, No Iterations 5
time step continuity errors : sum local = 1.64482e-10, global = -2.4382e-11, cumulative = 7.30264e-07
ExecutionTime = 0.83 s  ClockTime = 0 s

fieldAverage fieldAverage1 write:
    Calculating averages

Courant Number mean: 0.113075 max: 0.99531
deltaT = 0.21445
Time = 7.42659

PIMPLE: iteration 1
smoothSolver:  Solving for Ux, Initial residual = 0.00405334, Final residual = 0.000201702, No Iterations 2
smoothSolver:  Solving for Uz, Initial residual = 0.00436676, Final residual = 5.64453e-05, No Iterations 3
GAMG:  Solving for p, Initial residual = 0.00206619, Final residual = 8.65384e-06, No Iterations 4
time step continuity errors : sum local = 1.63613e-08, global = 3.16926e-09, cumulative = 7.33433e-07
GAMG:  Solving for p, Initial residual = 0.00101514, Final residual = 8.80049e-06, No Iterations 4
time step continuity errors : sum local = 1.66404e-08, global = -2.77572e-09, cumulative = 7.30658e-07
GAMG:  Solving for p, Initial residual = 7.00416e-05, Final residual = 6.26624e-08, No Iterations 4
time step continuity errors : sum local = 1.18473e-10, global = -2.9438e-11, cumulative = 7.30628e-07
PIMPLE: iteration 2
smoothSolver:  Solving for Ux, Initial residual = 7.80527e-05, Final residual = 7.60474e-07, No Iterations 3
smoothSolver:  Solving for Uz, Initial residual = 0.000125135, Final residual = 3.22792e-07, No Iterations 4
GAMG:  Solving for p, Initial residual = 0.00138108, Final residual = 1.1934e-05, No Iterations 4
time step continuity errors : sum local = 2.2569e-08, global = 1.95655e-09, cumulative = 7.32585e-07
GAMG:  Solving for p, Initial residual = 0.000724323, Final residual = 2.80577e-06, No Iterations 5
time step continuity errors : sum local = 5.30675e-09, global = -4.1731e-10, cumulative = 7.32168e-07
GAMG:  Solving for p, Initial residual = 4.0881e-05, Final residual = 8.35022e-08, No Iterations 5
time step continuity errors : sum local = 1.57917e-10, global = -2.51196e-11, cumulative = 7.32142e-07
ExecutionTime = 0.85 s  ClockTime = 0 s

fieldAverage fieldAverage1 write:
    Calculating averages

Courant Number mean: 0.113376 max: 0.995108
deltaT = 0.21445
Time = 7.64104

PIMPLE: iteration 1
smoothSolver:  Solving for Ux, Initial residual = 0.00398353, Final residual = 0.000198415, No Iterations 2
smoothSolver:  Solving for Uz, Initial residual = 0.00427733, Final residual = 5.53292e-05, No Iterations 3
GAMG:  Solving for p, Initial residual = 0.00200996, Final residual = 8.52679e-06, No Iterations 4
time step continuity errors : sum local = 1.61347e-08, global = 3.1032e-09, cumulative = 7.35246e-07
GAMG:  Solving for p, Initial residual = 0.000990068, Final residual = 8.69998e-06, No Iterations 4
time step continuity errors : sum local = 1.64643e-08, global = -2.69149e-09, cumulative = 7.32554e-07
GAMG:  Solving for p, Initial residual = 6.83724e-05, Final residual = 6.09323e-08, No Iterations 4
time step continuity errors : sum local = 1.15299e-10, global = -2.87732e-11, cumulative = 7.32525e-07
PIMPLE: iteration 2
smoothSolver:  Solving for Ux, Initial residual = 7.63574e-05, Final residual = 7.4587e-07, No Iterations 3
smoothSolver:  Solving for Uz, Initial residual = 0.000121489, Final residual = 3.1438e-07, No Iterations 4
GAMG:  Solving for p, Initial residual = 0.00133478, Final residual = 1.16867e-05, No Iterations 4
time step continuity errors : sum local = 2.21199e-08, global = 1.9033e-09, cumulative = 7.34429e-07
GAMG:  Solving for p, Initial residual = 0.000701236, Final residual = 2.73752e-06, No Iterations 5
time step continuity errors : sum local = 5.18199e-09, global = -4.04917e-10, cumulative = 7.34024e-07
GAMG:  Solving for p, Initial residual = 3.95186e-05, Final residual = 7.91632e-08, No Iterations 5
time step continuity errors : sum local = 1.49835e-10, global = -2.28756e-11, cumulative = 7.34001e-07
ExecutionTime = 0.87 s  ClockTime = 0 s

fieldAverage fieldAverage1 write:
    Calculating averages

Courant Number mean: 0.113677 max: 0.994914
deltaT = 0.21445
Time = 7.8555

PIMPLE: iteration 1
smoothSolver:  Solving for Ux, Initial residual = 0.00391528, Final residual = 0.000195211, No Iterations 2
smoothSolver:  Solving for Uz, Initial residual = 0.00419214, Final residual = 5.42483e-05, No Iterations 3
GAMG:  Solving for p, Initial residual = 0.00196975, Final residual = 8.37728e-06, No Iterations 4
time step continuity errors : sum local = 1.5865e-08, global = 3.02099e-09, cumulative = 7.37022e-07
GAMG:  Solving for p, Initial residual = 0.000965469, Final residual = 8.59308e-06, No Iterations 4
time step continuity errors : sum local = 1.62757e-08, global = -2.60745e-09, cumulative = 7.34414e-07
GAMG:  Solving for p, Initial residual = 6.67995e-05, Final residual = 5.8443e-08, No Iterations 4
time step continuity errors : sum local = 1.10681e-10, global = -2.72887e-11, cumulative = 7.34387e-07
PIMPLE: iteration 2
smoothSolver:  Solving for Ux, Initial residual = 7.46774e-05, Final residual = 7.3196e-07, No Iterations 3
smoothSolver:  Solving for Uz, Initial residual = 0.000117959, Final residual = 3.06415e-07, No Iterations 4
GAMG:  Solving for p, Initial residual = 0.00129436, Final residual = 1.14542e-05, No Iterations 4
time step continuity errors : sum local = 2.16979e-08, global = 1.86024e-09, cumulative = 7.36247e-07
GAMG:  Solving for p, Initial residual = 0.00068011, Final residual = 2.6742e-06, No Iterations 5
time step continuity errors : sum local = 5.06638e-09, global = -3.91006e-10, cumulative = 7.35856e-07
GAMG:  Solving for p, Initial residual = 3.82661e-05, Final residual = 7.56231e-08, No Iterations 5
time step continuity errors : sum local = 1.43255e-10, global = -2.15319e-11, cumulative = 7.35835e-07
ExecutionTime = 0.89 s  ClockTime = 0 s

fieldAverage fieldAverage1 write:
    Calculating averages

Courant Number mean: 0.113978 max: 0.994727
deltaT = 0.21445
Time = 8.06995

PIMPLE: iteration 1
smoothSolver:  Solving for Ux, Initial residual = 0.00384919, Final residual = 0.000192152, No Iterations 2
smoothSolver:  Solving for Uz, Initial residual = 0.00410945, Final residual = 5.32038e-05, No Iterations 3
GAMG:  Solving for p, Initial residual = 0.0019242, Final residual = 8.41277e-06, No Iterations 4
time step continuity errors : sum local = 1.59454e-08, global = 3.04102e-09, cumulative = 7.38876e-07
GAMG:  Solving for p, Initial residual = 0.000941992, Final residual = 8.5189e-06, No Iterations 4
time step continuity errors : sum local = 1.61486e-08, global = -2.50808e-09, cumulative = 7.36368e-07
GAMG:  Solving for p, Initial residual = 6.54149e-05, Final residual = 6.02332e-08, No Iterations 4
time step continuity errors : sum local = 1.14165e-10, global = -2.99051e-11, cumulative = 7.36338e-07
PIMPLE: iteration 2
smoothSolver:  Solving for Ux, Initial residual = 7.30256e-05, Final residual = 7.17883e-07, No Iterations 3
smoothSolver:  Solving for Uz, Initial residual = 0.000114626, Final residual = 2.98989e-07, No Iterations 4
GAMG:  Solving for p, Initial residual = 0.00125541, Final residual = 1.12122e-05, No Iterations 4
time step continuity errors : sum local = 2.12568e-08, global = 1.77196e-09, cumulative = 7.3811e-07
GAMG:  Solving for p, Initial residual = 0.000659755, Final residual = 2.60371e-06, No Iterations 5
time step continuity errors : sum local = 4.93683e-09, global = -3.83539e-10, cumulative = 7.37726e-07
GAMG:  Solving for p, Initial residual = 3.71096e-05, Final residual = 6.91872e-08, No Iterations 5
time step continuity errors : sum local = 1.31171e-10, global = -1.61654e-11, cumulative = 7.3771e-07
ExecutionTime = 0.91 s  ClockTime = 0 s

fieldAverage fieldAverage1 write:
    Calculating averages

Courant Number mean: 0.114277 max: 0.994548
deltaT = 0.21445
Time = 8.2844

PIMPLE: iteration 1
smoothSolver:  Solving for Ux, Initial residual = 0.00378517, Final residual = 0.000189233, No Iterations 2
smoothSolver:  Solving for Uz, Initial residual = 0.00402884, Final residual = 5.22121e-05, No Iterations 3
GAMG:  Solving for p, Initial residual = 0.00190395, Final residual = 8.32085e-06, No Iterations 4
time step continuity errors : sum local = 1.57839e-08, global = 2.97971e-09, cumulative = 7.4069e-07
GAMG:  Solving for p, Initial residual = 0.000928141, Final residual = 8.47842e-06, No Iterations 4
time step continuity errors : sum local = 1.60847e-08, global = -2.4368e-09, cumulative = 7.38253e-07
GAMG:  Solving for p, Initial residual = 6.45783e-05, Final residual = 5.91281e-08, No Iterations 4
time step continuity errors : sum local = 1.1216e-10, global = -2.9568e-11, cumulative = 7.38223e-07
PIMPLE: iteration 2
smoothSolver:  Solving for Ux, Initial residual = 7.14522e-05, Final residual = 7.05021e-07, No Iterations 3
smoothSolver:  Solving for Uz, Initial residual = 0.000111482, Final residual = 2.91859e-07, No Iterations 4
GAMG:  Solving for p, Initial residual = 0.00122182, Final residual = 1.09982e-05, No Iterations 4
time step continuity errors : sum local = 2.08675e-08, global = 1.72714e-09, cumulative = 7.39951e-07
GAMG:  Solving for p, Initial residual = 0.000640847, Final residual = 2.54954e-06, No Iterations 5
time step continuity errors : sum local = 4.83787e-09, global = -3.72787e-10, cumulative = 7.39578e-07
GAMG:  Solving for p, Initial residual = 3.59958e-05, Final residual = 6.582e-08, No Iterations 5
time step continuity errors : sum local = 1.24884e-10, global = -1.46622e-11, cumulative = 7.39563e-07
ExecutionTime = 0.93 s  ClockTime = 1 s

fieldAverage fieldAverage1 write:
    Calculating averages

surfaceFieldValue surfaceFieldValue1 write:
    areaAverage(outlet) of U = (0.0045794 0 -0.0924258)
    areaAverage(outlet) of phi = 0.00025

surfaceFieldValue surfaceFieldValue2 write:
    areaAverage(inlet) of U = (0 0 -0.1)
    areaAverage(inlet) of phi = -0.00025

Courant Number mean: 0.114577 max: 0.994375
deltaT = 0.21445
Time = 8.49885

PIMPLE: iteration 1
smoothSolver:  Solving for Ux, Initial residual = 0.00372234, Final residual = 4.19627e-05, No Iterations 3
smoothSolver:  Solving for Uz, Initial residual = 0.00395079, Final residual = 5.12541e-05, No Iterations 3
GAMG:  Solving for p, Initial residual = 0.00165008, Final residual = 4.34642e-06, No Iterations 4
time step continuity errors : sum local = 8.25057e-09, global = 1.3309e-09, cumulative = 7.40894e-07
GAMG:  Solving for p, Initial residual = 0.000655366, Final residual = 3.55425e-06, No Iterations 4
time step continuity errors : sum local = 6.74771e-09, global = -1.03591e-09, cumulative = 7.39858e-07
GAMG:  Solving for p, Initial residual = 5.85607e-05, Final residual = 7.59265e-08, No Iterations 3
time step continuity errors : sum local = 1.44137e-10, global = -3.6006e-11, cumulative = 7.39822e-07
PIMPLE: iteration 2
smoothSolver:  Solving for Ux, Initial residual = 5.33932e-05, Final residual = 4.59468e-07, No Iterations 3
smoothSolver:  Solving for Uz, Initial residual = 9.78624e-05, Final residual = 2.51789e-07, No Iterations 4
GAMG:  Solving for p, Initial residual = 0.00117881, Final residual = 1.07681e-05, No Iterations 4
time step continuity errors : sum local = 2.04459e-08, global = 1.4192e-09, cumulative = 7.41241e-07
GAMG:  Solving for p, Initial residual = 0.000617985, Final residual = 2.50049e-06, No Iterations 5
time step continuity errors : sum local = 4.7483e-09, global = -2.59347e-10, cumulative = 7.40982e-07
GAMG:  Solving for p, Initial residual = 3.47527e-05, Final residual = 6.29942e-08, No Iterations 5
time step continuity errors : sum local = 1.19612e-10, global = -1.92441e-11, cumulative = 7.40963e-07
ExecutionTime = 0.95 s  ClockTime = 1 s

fieldAverage fieldAverage1 write:
    Calculating averages

Courant Number mean: 0.11488 max: 0.994209
deltaT = 0.21445
Time = 8.7133

PIMPLE: iteration 1
smoothSolver:  Solving for Ux, Initial residual = 0.00366336, Final residual = 4.1349e-05, No Iterations 3
smoothSolver:  Solving for Uz, Initial residual = 0.00387436, Final residual = 5.03119e-05, No Iterations 3
[...]
time step continuity errors : sum local = 3.0402e-11, global = -3.39736e-12, cumulative = 8.12011e-07
PIMPLE: iteration 2
smoothSolver:  Solving for Ux, Initial residual = 4.20578e-06, Final residual = 8.43694e-07, No Iterations 1
smoothSolver:  Solving for Uz, Initial residual = 2.68876e-06, Final residual = 5.92871e-07, No Iterations 1
GAMG:  Solving for p, Initial residual = 4.1534e-05, Final residual = 9.77967e-08, No Iterations 3
time step continuity errors : sum local = 1.96977e-10, global = -7.16053e-11, cumulative = 8.1194e-07
GAMG:  Solving for p, Initial residual = 1.644e-05, Final residual = 7.18181e-08, No Iterations 3
time step continuity errors : sum local = 1.44652e-10, global = 1.31299e-11, cumulative = 8.11953e-07
GAMG:  Solving for p, Initial residual = 1.11249e-06, Final residual = 5.33863e-08, No Iterations 1
time step continuity errors : sum local = 1.07528e-10, global = 4.58292e-11, cumulative = 8.11999e-07
ExecutionTime = 5.27 s  ClockTime = 5 s

fieldAverage fieldAverage1 write:
    Calculating averages

Courant Number mean: 0.143809 max: 0.998176
deltaT = 0.217391
Time = 58.0435

PIMPLE: iteration 1
smoothSolver:  Solving for Ux, Initial residual = 0.000328973, Final residual = 4.09719e-06, No Iterations 3
smoothSolver:  Solving for Uz, Initial residual = 0.000195405, Final residual = 2.6516e-06, No Iterations 3
GAMG:  Solving for p, Initial residual = 7.45118e-05, Final residual = 2.04745e-07, No Iterations 3
time step continuity errors : sum local = 4.12392e-10, global = 8.81925e-11, cumulative = 8.12087e-07
GAMG:  Solving for p, Initial residual = 2.78655e-05, Final residual = 1.50501e-07, No Iterations 3
time step continuity errors : sum local = 3.03136e-10, global = -6.51418e-11, cumulative = 8.12022e-07
GAMG:  Solving for p, Initial residual = 3.46961e-06, Final residual = 1.489e-08, No Iterations 2
time step continuity errors : sum local = 2.9991e-11, global = -3.34823e-12, cumulative = 8.12018e-07
PIMPLE: iteration 2
smoothSolver:  Solving for Ux, Initial residual = 4.16737e-06, Final residual = 8.35963e-07, No Iterations 1
smoothSolver:  Solving for Uz, Initial residual = 2.65892e-06, Final residual = 5.86126e-07, No Iterations 1
GAMG:  Solving for p, Initial residual = 4.11202e-05, Final residual = 9.64717e-08, No Iterations 3
time step continuity errors : sum local = 1.94312e-10, global = -7.15295e-11, cumulative = 8.11947e-07
GAMG:  Solving for p, Initial residual = 1.62521e-05, Final residual = 7.05396e-08, No Iterations 3
time step continuity errors : sum local = 1.4208e-10, global = 1.44767e-11, cumulative = 8.11961e-07
GAMG:  Solving for p, Initial residual = 1.10068e-06, Final residual = 5.30813e-08, No Iterations 1
time step continuity errors : sum local = 1.06916e-10, global = 4.51347e-11, cumulative = 8.12007e-07
ExecutionTime = 5.28 s  ClockTime = 5 s

fieldAverage fieldAverage1 write:
    Calculating averages

Courant Number mean: 0.14383 max: 0.99816
deltaT = 0.217391
Time = 58.2609

PIMPLE: iteration 1
smoothSolver:  Solving for Ux, Initial residual = 0.000325999, Final residual = 4.05985e-06, No Iterations 3
smoothSolver:  Solving for Uz, Initial residual = 0.000193449, Final residual = 2.62427e-06, No Iterations 3
GAMG:  Solving for p, Initial residual = 7.37299e-05, Final residual = 2.01663e-07, No Iterations 3
time step continuity errors : sum local = 4.06192e-10, global = 8.70635e-11, cumulative = 8.12094e-07
GAMG:  Solving for p, Initial residual = 2.75579e-05, Final residual = 1.47913e-07, No Iterations 3
time step continuity errors : sum local = 2.97928e-10, global = -6.43678e-11, cumulative = 8.12029e-07
GAMG:  Solving for p, Initial residual = 3.43484e-06, Final residual = 1.46891e-08, No Iterations 2
time step continuity errors : sum local = 2.9587e-11, global = -3.29867e-12, cumulative = 8.12026e-07
PIMPLE: iteration 2
smoothSolver:  Solving for Ux, Initial residual = 4.12925e-06, Final residual = 8.28304e-07, No Iterations 1
smoothSolver:  Solving for Uz, Initial residual = 2.62943e-06, Final residual = 5.79458e-07, No Iterations 1
GAMG:  Solving for p, Initial residual = 4.06901e-05, Final residual = 9.51873e-08, No Iterations 3
time step continuity errors : sum local = 1.91728e-10, global = -7.14229e-11, cumulative = 8.11954e-07
GAMG:  Solving for p, Initial residual = 1.60664e-05, Final residual = 6.9338e-08, No Iterations 3
time step continuity errors : sum local = 1.39662e-10, global = 1.57619e-11, cumulative = 8.1197e-07
GAMG:  Solving for p, Initial residual = 1.08966e-06, Final residual = 5.27963e-08, No Iterations 1
time step continuity errors : sum local = 1.06344e-10, global = 4.44379e-11, cumulative = 8.12015e-07
ExecutionTime = 5.3 s  ClockTime = 5 s

fieldAverage fieldAverage1 write:
    Calculating averages

surfaceFieldValue surfaceFieldValue1 write:
    areaAverage(outlet) of U = (0.00289288 0 -0.0924444)
    areaAverage(outlet) of phi = 0.00025

surfaceFieldValue surfaceFieldValue2 write:
    areaAverage(inlet) of U = (0 0 -0.1)
    areaAverage(inlet) of phi = -0.00025

Courant Number mean: 0.14385 max: 0.998143
deltaT = 0.217391
Time = 58.4783

PIMPLE: iteration 1
smoothSolver:  Solving for Ux, Initial residual = 0.000323056, Final residual = 4.02284e-06, No Iterations 3
smoothSolver:  Solving for Uz, Initial residual = 0.000191514, Final residual = 2.59724e-06, No Iterations 3
GAMG:  Solving for p, Initial residual = 7.29612e-05, Final residual = 1.98692e-07, No Iterations 3
time step continuity errors : sum local = 4.00214e-10, global = 8.59632e-11, cumulative = 8.12101e-07
GAMG:  Solving for p, Initial residual = 2.72541e-05, Final residual = 1.4538e-07, No Iterations 3
time step continuity errors : sum local = 2.92831e-10, global = -6.36106e-11, cumulative = 8.12037e-07
GAMG:  Solving for p, Initial residual = 3.40059e-06, Final residual = 1.44938e-08, No Iterations 2
time step continuity errors : sum local = 2.91942e-11, global = -3.25011e-12, cumulative = 8.12034e-07
PIMPLE: iteration 2
smoothSolver:  Solving for Ux, Initial residual = 4.09168e-06, Final residual = 8.20735e-07, No Iterations 1
smoothSolver:  Solving for Uz, Initial residual = 2.60032e-06, Final residual = 5.72875e-07, No Iterations 1
GAMG:  Solving for p, Initial residual = 4.02652e-05, Final residual = 9.3955e-08, No Iterations 3
time step continuity errors : sum local = 1.8925e-10, global = -7.129e-11, cumulative = 8.11963e-07
GAMG:  Solving for p, Initial residual = 1.58829e-05, Final residual = 6.81898e-08, No Iterations 3
time step continuity errors : sum local = 1.37352e-10, global = 1.70261e-11, cumulative = 8.1198e-07
GAMG:  Solving for p, Initial residual = 1.07882e-06, Final residual = 5.25427e-08, No Iterations 1
time step continuity errors : sum local = 1.05835e-10, global = 4.3728e-11, cumulative = 8.12023e-07
ExecutionTime = 5.31 s  ClockTime = 5 s

fieldAverage fieldAverage1 write:
    Calculating averages

Courant Number mean: 0.143871 max: 0.998127
deltaT = 0.217391
Time = 58.6957

PIMPLE: iteration 1
smoothSolver:  Solving for Ux, Initial residual = 0.000320145, Final residual = 3.98616e-06, No Iterations 3
smoothSolver:  Solving for Uz, Initial residual = 0.000189602, Final residual = 2.57052e-06, No Iterations 3
GAMG:  Solving for p, Initial residual = 7.22487e-05, Final residual = 1.95998e-07, No Iterations 3
time step continuity errors : sum local = 3.94796e-10, global = 8.49928e-11, cumulative = 8.12108e-07
GAMG:  Solving for p, Initial residual = 2.69555e-05, Final residual = 1.43046e-07, No Iterations 3
time step continuity errors : sum local = 2.88136e-10, global = -6.28784e-11, cumulative = 8.12045e-07
GAMG:  Solving for p, Initial residual = 3.36811e-06, Final residual = 1.4309e-08, No Iterations 2
time step continuity errors : sum local = 2.88225e-11, global = -3.20292e-12, cumulative = 8.12042e-07
PIMPLE: iteration 2
smoothSolver:  Solving for Ux, Initial residual = 4.05438e-06, Final residual = 8.13235e-07, No Iterations 1
smoothSolver:  Solving for Uz, Initial residual = 2.57156e-06, Final residual = 5.66379e-07, No Iterations 1
GAMG:  Solving for p, Initial residual = 3.98424e-05, Final residual = 9.27643e-08, No Iterations 3
time step continuity errors : sum local = 1.86855e-10, global = -7.11286e-11, cumulative = 8.11971e-07
GAMG:  Solving for p, Initial residual = 1.57008e-05, Final residual = 6.70903e-08, No Iterations 3
time step continuity errors : sum local = 1.3514e-10, global = 1.82644e-11, cumulative = 8.11989e-07
GAMG:  Solving for p, Initial residual = 1.06817e-06, Final residual = 5.23141e-08, No Iterations 1
time step continuity errors : sum local = 1.05376e-10, global = 4.30097e-11, cumulative = 8.12032e-07
ExecutionTime = 5.34 s  ClockTime = 5 s

fieldAverage fieldAverage1 write:
    Calculating averages

Courant Number mean: 0.143891 max: 0.998111
deltaT = 0.217391
Time = 58.913

PIMPLE: iteration 1
smoothSolver:  Solving for Ux, Initial residual = 0.00031726, Final residual = 3.94986e-06, No Iterations 3
smoothSolver:  Solving for Uz, Initial residual = 0.00018771, Final residual = 2.54416e-06, No Iterations 3
GAMG:  Solving for p, Initial residual = 7.15972e-05, Final residual = 1.92079e-07, No Iterations 3
time step continuity errors : sum local = 3.86909e-10, global = 8.33765e-11, cumulative = 8.12116e-07
GAMG:  Solving for p, Initial residual = 2.66663e-05, Final residual = 1.39901e-07, No Iterations 3
time step continuity errors : sum local = 2.81805e-10, global = -6.20853e-11, cumulative = 8.12054e-07
GAMG:  Solving for p, Initial residual = 3.33373e-06, Final residual = 9.95267e-08, No Iterations 1
time step continuity errors : sum local = 2.00479e-10, global = -3.88438e-11, cumulative = 8.12015e-07
PIMPLE: iteration 2
smoothSolver:  Solving for Ux, Initial residual = 4.01006e-06, Final residual = 8.05458e-07, No Iterations 1
smoothSolver:  Solving for Uz, Initial residual = 2.53546e-06, Final residual = 5.58119e-07, No Iterations 1
GAMG:  Solving for p, Initial residual = 3.94294e-05, Final residual = 9.02381e-08, No Iterations 3
time step continuity errors : sum local = 1.81769e-10, global = -7.57791e-11, cumulative = 8.11939e-07
GAMG:  Solving for p, Initial residual = 1.55207e-05, Final residual = 5.49932e-08, No Iterations 3
time step continuity errors : sum local = 1.10775e-10, global = 3.24433e-11, cumulative = 8.11971e-07
GAMG:  Solving for p, Initial residual = 1.05039e-06, Final residual = 5.53945e-08, No Iterations 1
time step continuity errors : sum local = 1.11583e-10, global = 3.75849e-11, cumulative = 8.12009e-07
ExecutionTime = 5.35 s  ClockTime = 5 s

fieldAverage fieldAverage1 write:
    Calculating averages

Courant Number mean: 0.14391 max: 0.998095
deltaT = 0.217391
Time = 59.1304

PIMPLE: iteration 1
smoothSolver:  Solving for Ux, Initial residual = 0.000314402, Final residual = 3.91387e-06, No Iterations 3
smoothSolver:  Solving for Uz, Initial residual = 0.00018584, Final residual = 2.51815e-06, No Iterations 3
GAMG:  Solving for p, Initial residual = 7.09932e-05, Final residual = 1.88331e-07, No Iterations 3
time step continuity errors : sum local = 3.79366e-10, global = 8.4389e-11, cumulative = 8.12093e-07
GAMG:  Solving for p, Initial residual = 2.64344e-05, Final residual = 1.39318e-07, No Iterations 3
time step continuity errors : sum local = 2.80636e-10, global = -6.0437e-11, cumulative = 8.12033e-07
GAMG:  Solving for p, Initial residual = 3.30658e-06, Final residual = 9.79413e-08, No Iterations 1
time step continuity errors : sum local = 1.97289e-10, global = -3.85634e-11, cumulative = 8.11994e-07
PIMPLE: iteration 2
smoothSolver:  Solving for Ux, Initial residual = 3.97632e-06, Final residual = 7.98138e-07, No Iterations 1
smoothSolver:  Solving for Uz, Initial residual = 2.50778e-06, Final residual = 5.51884e-07, No Iterations 1
GAMG:  Solving for p, Initial residual = 3.9017e-05, Final residual = 8.92294e-08, No Iterations 3
time step continuity errors : sum local = 1.7974e-10, global = -7.4971e-11, cumulative = 8.11919e-07
GAMG:  Solving for p, Initial residual = 1.53477e-05, Final residual = 5.39295e-08, No Iterations 3
time step continuity errors : sum local = 1.08634e-10, global = 3.26447e-11, cumulative = 8.11952e-07
GAMG:  Solving for p, Initial residual = 1.04104e-06, Final residual = 5.47826e-08, No Iterations 1
time step continuity errors : sum local = 1.10352e-10, global = 3.71759e-11, cumulative = 8.11989e-07
ExecutionTime = 5.36 s  ClockTime = 5 s

fieldAverage fieldAverage1 write:
    Calculating averages

Courant Number mean: 0.14393 max: 0.998079
deltaT = 0.217391
Time = 59.3478

PIMPLE: iteration 1
smoothSolver:  Solving for Ux, Initial residual = 0.000311572, Final residual = 3.8782e-06, No Iterations 3
smoothSolver:  Solving for Uz, Initial residual = 0.000183992, Final residual = 2.49244e-06, No Iterations 3
GAMG:  Solving for p, Initial residual = 7.00852e-05, Final residual = 1.85286e-07, No Iterations 3
time step continuity errors : sum local = 3.73238e-10, global = 8.28168e-11, cumulative = 8.12072e-07
GAMG:  Solving for p, Initial residual = 2.60746e-05, Final residual = 1.35773e-07, No Iterations 3
time step continuity errors : sum local = 2.73499e-10, global = -5.99422e-11, cumulative = 8.12012e-07
GAMG:  Solving for p, Initial residual = 3.26747e-06, Final residual = 9.6618e-08, No Iterations 1
time step continuity errors : sum local = 1.94626e-10, global = -3.80534e-11, cumulative = 8.11974e-07
PIMPLE: iteration 2
smoothSolver:  Solving for Ux, Initial residual = 3.93994e-06, Final residual = 7.90823e-07, No Iterations 1
smoothSolver:  Solving for Uz, Initial residual = 2.47998e-06, Final residual = 5.45615e-07, No Iterations 1
GAMG:  Solving for p, Initial residual = 3.86089e-05, Final residual = 8.84709e-08, No Iterations 3
time step continuity errors : sum local = 1.78215e-10, global = -7.43521e-11, cumulative = 8.119e-07
GAMG:  Solving for p, Initial residual = 1.51736e-05, Final residual = 5.28553e-08, No Iterations 3
time step continuity errors : sum local = 1.06472e-10, global = 3.31421e-11, cumulative = 8.11933e-07
GAMG:  Solving for p, Initial residual = 1.03119e-06, Final residual = 5.43142e-08, No Iterations 1
time step continuity errors : sum local = 1.09411e-10, global = 3.67704e-11, cumulative = 8.1197e-07
ExecutionTime = 5.38 s  ClockTime = 5 s

fieldAverage fieldAverage1 write:
    Calculating averages

Courant Number mean: 0.143949 max: 0.998063
deltaT = 0.217391
Time = 59.5652

PIMPLE: iteration 1
smoothSolver:  Solving for Ux, Initial residual = 0.000308769, Final residual = 3.84294e-06, No Iterations 3
smoothSolver:  Solving for Uz, Initial residual = 0.000182164, Final residual = 2.467e-06, No Iterations 3
GAMG:  Solving for p, Initial residual = 6.93837e-05, Final residual = 1.82219e-07, No Iterations 3
time step continuity errors : sum local = 3.67066e-10, global = 8.14161e-11, cumulative = 8.12051e-07
GAMG:  Solving for p, Initial residual = 2.57844e-05, Final residual = 1.32655e-07, No Iterations 3
time step continuity errors : sum local = 2.67224e-10, global = -5.93239e-11, cumulative = 8.11992e-07
GAMG:  Solving for p, Initial residual = 3.23512e-06, Final residual = 9.53191e-08, No Iterations 1
time step continuity errors : sum local = 1.92013e-10, global = -3.75977e-11, cumulative = 8.11954e-07
PIMPLE: iteration 2
smoothSolver:  Solving for Ux, Initial residual = 3.90393e-06, Final residual = 7.83588e-07, No Iterations 1
smoothSolver:  Solving for Uz, Initial residual = 2.45258e-06, Final residual = 5.39437e-07, No Iterations 1
GAMG:  Solving for p, Initial residual = 3.82051e-05, Final residual = 8.77211e-08, No Iterations 3
time step continuity errors : sum local = 1.76708e-10, global = -7.37049e-11, cumulative = 8.1188e-07
GAMG:  Solving for p, Initial residual = 1.50017e-05, Final residual = 5.18271e-08, No Iterations 3
time step continuity errors : sum local = 1.04402e-10, global = 3.35754e-11, cumulative = 8.11914e-07
GAMG:  Solving for p, Initial residual = 1.02154e-06, Final residual = 5.38185e-08, No Iterations 1
time step continuity errors : sum local = 1.08414e-10, global = 3.64001e-11, cumulative = 8.1195e-07
ExecutionTime = 5.39 s  ClockTime = 5 s

fieldAverage fieldAverage1 write:
    Calculating averages

Courant Number mean: 0.143968 max: 0.998047
deltaT = 0.217391
Time = 59.7826

PIMPLE: iteration 1
smoothSolver:  Solving for Ux, Initial residual = 0.000305992, Final residual = 3.80804e-06, No Iterations 3
smoothSolver:  Solving for Uz, Initial residual = 0.000180355, Final residual = 2.44185e-06, No Iterations 3
GAMG:  Solving for p, Initial residual = 6.8896e-05, Final residual = 1.79219e-07, No Iterations 3
time step continuity errors : sum local = 3.61029e-10, global = 8.00268e-11, cumulative = 8.1203e-07
GAMG:  Solving for p, Initial residual = 2.55097e-05, Final residual = 1.29772e-07, No Iterations 3
time step continuity errors : sum local = 2.61419e-10, global = -5.87239e-11, cumulative = 8.11972e-07
GAMG:  Solving for p, Initial residual = 3.20889e-06, Final residual = 9.40921e-08, No Iterations 1
time step continuity errors : sum local = 1.89544e-10, global = -3.71327e-11, cumulative = 8.11935e-07
PIMPLE: iteration 2
smoothSolver:  Solving for Ux, Initial residual = 3.86832e-06, Final residual = 7.76418e-07, No Iterations 1
smoothSolver:  Solving for Uz, Initial residual = 2.42551e-06, Final residual = 5.33337e-07, No Iterations 1
GAMG:  Solving for p, Initial residual = 3.78142e-05, Final residual = 8.69834e-08, No Iterations 3
time step continuity errors : sum local = 1.75225e-10, global = -7.30416e-11, cumulative = 8.11862e-07
GAMG:  Solving for p, Initial residual = 1.48318e-05, Final residual = 5.08468e-08, No Iterations 3
time step continuity errors : sum local = 1.02429e-10, global = 3.39628e-11, cumulative = 8.11895e-07
GAMG:  Solving for p, Initial residual = 1.012e-06, Final residual = 5.33056e-08, No Iterations 1
time step continuity errors : sum local = 1.07382e-10, global = 3.60648e-11, cumulative = 8.11932e-07
ExecutionTime = 5.41 s  ClockTime = 5 s

fieldAverage fieldAverage1 write:
    Calculating averages

Courant Number mean: 0.143987 max: 0.998031
deltaT = 0.217391
Time = 60

PIMPLE: iteration 1
smoothSolver:  Solving for Ux, Initial residual = 0.000303241, Final residual = 3.77347e-06, No Iterations 3
smoothSolver:  Solving for Uz, Initial residual = 0.000178566, Final residual = 2.41698e-06, No Iterations 3
GAMG:  Solving for p, Initial residual = 6.88151e-05, Final residual = 1.7682e-07, No Iterations 3
time step continuity errors : sum local = 3.56201e-10, global = 7.8795e-11, cumulative = 8.1201e-07
GAMG:  Solving for p, Initial residual = 2.52175e-05, Final residual = 1.26344e-07, No Iterations 3
time step continuity errors : sum local = 2.54517e-10, global = -5.79389e-11, cumulative = 8.11952e-07
GAMG:  Solving for p, Initial residual = 3.20246e-06, Final residual = 9.28185e-08, No Iterations 1
time step continuity errors : sum local = 1.86982e-10, global = -3.66568e-11, cumulative = 8.11916e-07
PIMPLE: iteration 2
smoothSolver:  Solving for Ux, Initial residual = 3.833e-06, Final residual = 7.69309e-07, No Iterations 1
smoothSolver:  Solving for Uz, Initial residual = 2.39872e-06, Final residual = 5.27295e-07, No Iterations 1
GAMG:  Solving for p, Initial residual = 3.742e-05, Final residual = 8.62661e-08, No Iterations 3
time step continuity errors : sum local = 1.73782e-10, global = -7.23587e-11, cumulative = 8.11843e-07
GAMG:  Solving for p, Initial residual = 1.46638e-05, Final residual = 4.98655e-08, No Iterations 3
time step continuity errors : sum local = 1.00454e-10, global = 3.4369e-11, cumulative = 8.11878e-07
GAMG:  Solving for p, Initial residual = 1.00254e-06, Final residual = 5.27843e-08, No Iterations 1
time step continuity errors : sum local = 1.06334e-10, global = 3.57628e-11, cumulative = 8.11914e-07
ExecutionTime = 5.43 s  ClockTime = 5 s

fieldAverage fieldAverage1 write:
    Calculating averages

    Writing average fields

End

