/*---------------------------------------------------------------------------*\
  =========                 |
  \\      /  F ield         | OpenFOAM: The Open Source CFD Toolbox
   \\    /   O peration     | Website:  https://openfoam.org
    \\  /    A nd           | Version:  12
     \\/     M anipulation  |
\*---------------------------------------------------------------------------*/
Build  : 12-86e126a7bc4d
Exec   : foamRun
Date   : Sep 05 2025
Time   : 16:38:16
Host   : "ed-ThinkPad"
PID    : 23190
I/O    : uncollated
Case   : /home/ecastro/OpenFOAM/ecastro-12/run/tundishTutorial/tundishBasic2D/tundishUpwind2D
nProcs : 1
sigFpe : Enabling floating point exception trapping (FOAM_SIGFPE).
fileModificationChecking : Monitoring run-time modified files using timeStampMaster (fileModificationSkew 10)
allowSystemOperations : Allowing user-supplied system call operations

// * * * * * * * * * * * * * * * * * * * * * * * * * * * * * * * * * * * * * //
Create time

Create mesh for time = 0

Selecting solver incompressibleFluid
Selecting viscosity model constant
Selecting turbulence model type RAS
Selecting RAS turbulence model kEpsilon
Selecting generalised Newtonian model Newtonian
RAS
{
    RASModel        kEpsilon;
    turbulence      off;
    printCoeffs     on;
    viscosityModel  Newtonian;
    Cmu             0.09;
    C1              1.44;
    C2              1.92;
    C3              0;
    sigmak          1;
    sigmaEps        1.3;
}

No MRF models present

Courant Number mean: 0.000178571 max: 0.2

PIMPLE: No convergence criteria found


PIMPLE: No corrector convergence criteria found
        Calculations will do 2 corrections


PIMPLE: Operating solver in transient mode with 2 outer correctors


surfaceFieldValue surfaceAverageVelocityOutlet:
    total faces  = 4
    total area   = 0.01
surfaceAverageVelocityOutlet areaAverage weight field phi    scale factor = 1


surfaceFieldValue surfaceAveragePhiOutlet:
    total faces  = 4
    total area   = 0.01
surfaceAveragePhiOutlet areaAverage weight field phi    scale factor = 1


surfaceFieldValue surfaceAveragePhiInlet:
    total faces  = 4
    total area   = 0.01
surfaceAveragePhiInlet areaAverage weight field phi    scale factor = 1



Starting time loop

Courant Number mean: 0.000178571 max: 0.2
deltaT = 0.119048
Time = 0.119048s

PIMPLE: Iteration 1
smoothSolver:  Solving for Ux, Initial residual = 1, Final residual = 0.00559814, No Iterations 2
smoothSolver:  Solving for Uz, Initial residual = 1, Final residual = 0.00500532, No Iterations 2
GAMG:  Solving for p, Initial residual = 1, Final residual = 0.00844438, No Iterations 4
time step continuity errors : sum local = 3.98653e-06, global = -1.2018e-06
GAMG:  Solving for p, Initial residual = 0.0170031, Final residual = 5.62592e-08, No Iterations 10
time step continuity errors : sum local = 1.17854e-09, global = 3.45485e-10
PIMPLE: Iteration 2
smoothSolver:  Solving for Ux, Initial residual = 0.019053, Final residual = 2.48584e-07, No Iterations 5
smoothSolver:  Solving for Uz, Initial residual = 0.0176654, Final residual = 1.9548e-07, No Iterations 5
GAMG:  Solving for p, Initial residual = 0.0275053, Final residual = 0.000127108, No Iterations 4
time step continuity errors : sum local = 1.15287e-06, global = -1.58273e-07
GAMG:  Solving for p, Initial residual = 0.00722601, Final residual = 2.49727e-08, No Iterations 9
time step continuity errors : sum local = 2.33641e-10, global = -1.37792e-10, cumulative = -1.37792e-10
ExecutionTime = 0.092102 s  ClockTime = 0 s

Courant Number mean: 0.0653718 max: 0.650042
deltaT = 0.141156
Time = 0.260204s

PIMPLE: Iteration 1
smoothSolver:  Solving for Ux, Initial residual = 0.658373, Final residual = 0.0131419, No Iterations 2
smoothSolver:  Solving for Uz, Initial residual = 0.35996, Final residual = 0.00763314, No Iterations 2
GAMG:  Solving for p, Initial residual = 0.073733, Final residual = 0.00046368, No Iterations 4
time step continuity errors : sum local = 5.48672e-06, global = 1.36409e-06
GAMG:  Solving for p, Initial residual = 0.0485139, Final residual = 6.88358e-08, No Iterations 10
time step continuity errors : sum local = 8.31901e-10, global = -2.03881e-10
PIMPLE: Iteration 2
smoothSolver:  Solving for Ux, Initial residual = 0.0239244, Final residual = 9.55848e-07, No Iterations 5
smoothSolver:  Solving for Uz, Initial residual = 0.0113346, Final residual = 7.63611e-07, No Iterations 5
GAMG:  Solving for p, Initial residual = 0.128784, Final residual = 0.000239372, No Iterations 4
time step continuity errors : sum local = 2.40567e-07, global = -7.1771e-08
GAMG:  Solving for p, Initial residual = 0.0398202, Final residual = 9.62261e-08, No Iterations 9
time step continuity errors : sum local = 1.18776e-10, global = 2.84832e-11, cumulative = -1.09309e-10
ExecutionTime = 0.111052 s  ClockTime = 0 s

Courant Number mean: 0.077493 max: 0.728501
deltaT = 0.167928
Time = 0.428132s

PIMPLE: Iteration 1
smoothSolver:  Solving for Ux, Initial residual = 0.0171476, Final residual = 0.000378912, No Iterations 2
smoothSolver:  Solving for Uz, Initial residual = 0.016981, Final residual = 0.000440609, No Iterations 2
GAMG:  Solving for p, Initial residual = 0.0669031, Final residual = 0.000505781, No Iterations 3
time step continuity errors : sum local = 7.30034e-07, global = 3.72652e-07
GAMG:  Solving for p, Initial residual = 0.0250785, Final residual = 3.1535e-08, No Iterations 11
time step continuity errors : sum local = 4.26082e-11, global = -1.0374e-11
PIMPLE: Iteration 2
smoothSolver:  Solving for Ux, Initial residual = 0.000931474, Final residual = 5.79042e-07, No Iterations 4
smoothSolver:  Solving for Uz, Initial residual = 0.00150268, Final residual = 9.06501e-07, No Iterations 4
GAMG:  Solving for p, Initial residual = 0.0259292, Final residual = 0.000115383, No Iterations 3
time step continuity errors : sum local = 1.58099e-07, global = -4.24705e-08
GAMG:  Solving for p, Initial residual = 0.00793192, Final residual = 6.345e-08, No Iterations 8
time step continuity errors : sum local = 8.70592e-11, global = 2.12573e-11, cumulative = -8.80517e-11
ExecutionTime = 0.129148 s  ClockTime = 0 s

Courant Number mean: 0.0921419 max: 0.83847
deltaT = 0.199414
Time = 0.627546s

PIMPLE: Iteration 1
smoothSolver:  Solving for Ux, Initial residual = 0.0167662, Final residual = 0.000563104, No Iterations 2
smoothSolver:  Solving for Uz, Initial residual = 0.0144811, Final residual = 0.000582131, No Iterations 2
GAMG:  Solving for p, Initial residual = 0.02462, Final residual = 0.000143403, No Iterations 3
time step continuity errors : sum local = 2.49843e-07, global = 1.02664e-07
GAMG:  Solving for p, Initial residual = 0.00902927, Final residual = 7.69168e-08, No Iterations 9
time step continuity errors : sum local = 1.31027e-10, global = -3.18634e-11
PIMPLE: Iteration 2
smoothSolver:  Solving for Ux, Initial residual = 0.000612289, Final residual = 7.45634e-07, No Iterations 4
smoothSolver:  Solving for Uz, Initial residual = 0.00112638, Final residual = 2.88321e-07, No Iterations 5
GAMG:  Solving for p, Initial residual = 0.019145, Final residual = 8.29089e-05, No Iterations 3
time step continuity errors : sum local = 1.41803e-07, global = -3.2138e-08
GAMG:  Solving for p, Initial residual = 0.00662728, Final residual = 4.81522e-08, No Iterations 8
time step continuity errors : sum local = 8.19985e-11, global = 2.01004e-11, cumulative = -6.79513e-11
ExecutionTime = 0.146095 s  ClockTime = 0 s

Courant Number mean: 0.109361 max: 0.975596
deltaT = 0.203749
Time = 0.831295s

PIMPLE: Iteration 1
smoothSolver:  Solving for Ux, Initial residual = 0.0148517, Final residual = 0.000549578, No Iterations 2
smoothSolver:  Solving for Uz, Initial residual = 0.0122914, Final residual = 0.000540047, No Iterations 2
GAMG:  Solving for p, Initial residual = 0.0181076, Final residual = 0.000179794, No Iterations 2
time step continuity errors : sum local = 3.15191e-07, global = 1.42534e-07
GAMG:  Solving for p, Initial residual = 0.00518485, Final residual = 2.28089e-08, No Iterations 8
time step continuity errors : sum local = 3.96344e-11, global = 1.16581e-11
PIMPLE: Iteration 2
smoothSolver:  Solving for Ux, Initial residual = 0.000567753, Final residual = 8.8719e-07, No Iterations 4
smoothSolver:  Solving for Uz, Initial residual = 0.000858182, Final residual = 2.7356e-07, No Iterations 5
GAMG:  Solving for p, Initial residual = 0.0133458, Final residual = 5.45787e-05, No Iterations 3
time step continuity errors : sum local = 9.4852e-08, global = -1.686e-08
GAMG:  Solving for p, Initial residual = 0.00507502, Final residual = 7.6243e-08, No Iterations 7
time step continuity errors : sum local = 1.32313e-10, global = 3.30705e-11, cumulative = -3.48808e-11
ExecutionTime = 0.161707 s  ClockTime = 0 s

Courant Number mean: 0.111693 max: 0.984836
deltaT = 0.203749
--> FOAM Warning : 
    From function virtual Foam::Time& Foam::Time::operator++()
    in file db/Time/Time.C at line 1315
    Increased the timePrecision from 6 to 7 to distinguish between timeNames at time 1.035044
Time = 1.035044s

PIMPLE: Iteration 1
smoothSolver:  Solving for Ux, Initial residual = 0.0134028, Final residual = 0.00051143, No Iterations 2
smoothSolver:  Solving for Uz, Initial residual = 0.0107934, Final residual = 0.000490226, No Iterations 2
GAMG:  Solving for p, Initial residual = 0.0158952, Final residual = 0.000136901, No Iterations 2
time step continuity errors : sum local = 2.37371e-07, global = 8.6817e-08
GAMG:  Solving for p, Initial residual = 0.00438858, Final residual = 6.59553e-08, No Iterations 7
time step continuity errors : sum local = 1.13781e-10, global = 2.81329e-11
PIMPLE: Iteration 2
smoothSolver:  Solving for Ux, Initial residual = 0.000471281, Final residual = 7.3771e-07, No Iterations 4
smoothSolver:  Solving for Uz, Initial residual = 0.000683716, Final residual = 2.31202e-07, No Iterations 5
GAMG:  Solving for p, Initial residual = 0.0103191, Final residual = 4.48688e-05, No Iterations 3
time step continuity errors : sum local = 7.74775e-08, global = -1.18836e-08
GAMG:  Solving for p, Initial residual = 0.00414562, Final residual = 5.13427e-08, No Iterations 7
time step continuity errors : sum local = 8.86114e-11, global = 2.23466e-11, cumulative = -1.25342e-11
ExecutionTime = 0.176931 s  ClockTime = 0 s

Courant Number mean: 0.111667 max: 0.977324
deltaT = 0.208487
Time = 1.243531s

PIMPLE: Iteration 1
smoothSolver:  Solving for Ux, Initial residual = 0.0125713, Final residual = 0.000515957, No Iterations 2
smoothSolver:  Solving for Uz, Initial residual = 0.0100731, Final residual = 0.000485991, No Iterations 2
GAMG:  Solving for p, Initial residual = 0.0133835, Final residual = 0.000132191, No Iterations 2
time step continuity errors : sum local = 2.34911e-07, global = 7.04784e-08
GAMG:  Solving for p, Initial residual = 0.00397325, Final residual = 3.43529e-08, No Iterations 7
time step continuity errors : sum local = 6.07447e-11, global = 1.80547e-11
PIMPLE: Iteration 2
smoothSolver:  Solving for Ux, Initial residual = 0.00044062, Final residual = 7.75921e-07, No Iterations 4
smoothSolver:  Solving for Uz, Initial residual = 0.000613789, Final residual = 2.41848e-07, No Iterations 5
GAMG:  Solving for p, Initial residual = 0.00869208, Final residual = 3.9142e-05, No Iterations 3
time step continuity errors : sum local = 6.92917e-08, global = -9.8308e-09
GAMG:  Solving for p, Initial residual = 0.00367583, Final residual = 3.96849e-08, No Iterations 7
time step continuity errors : sum local = 7.02878e-11, global = 1.73209e-11, cumulative = 4.7867e-12
ExecutionTime = 0.191853 s  ClockTime = 0 s

Courant Number mean: 0.114276 max: 0.994806
deltaT = 0.208487
Time = 1.452018s

PIMPLE: Iteration 1
smoothSolver:  Solving for Ux, Initial residual = 0.0116906, Final residual = 0.000489144, No Iterations 2
smoothSolver:  Solving for Uz, Initial residual = 0.0093825, Final residual = 0.000456783, No Iterations 2
GAMG:  Solving for p, Initial residual = 0.011412, Final residual = 2.93763e-05, No Iterations 3
time step continuity errors : sum local = 5.19862e-08, global = 9.07413e-09
GAMG:  Solving for p, Initial residual = 0.00325827, Final residual = 3.77692e-08, No Iterations 7
time step continuity errors : sum local = 6.66091e-11, global = -1.90072e-11
PIMPLE: Iteration 2
smoothSolver:  Solving for Ux, Initial residual = 0.000333994, Final residual = 5.58788e-07, No Iterations 4
smoothSolver:  Solving for Uz, Initial residual = 0.000533095, Final residual = 9.82294e-07, No Iterations 4
GAMG:  Solving for p, Initial residual = 0.00732975, Final residual = 1.93866e-05, No Iterations 4
time step continuity errors : sum local = 3.42649e-08, global = -5.1126e-09
GAMG:  Solving for p, Initial residual = 0.00322907, Final residual = 3.03249e-08, No Iterations 8
time step continuity errors : sum local = 5.359e-11, global = 1.10092e-11, cumulative = 1.57959e-11
ExecutionTime = 0.208032 s  ClockTime = 0 s

Courant Number mean: 0.114301 max: 0.991055
deltaT = 0.208487
Time = 1.660506s

PIMPLE: Iteration 1
smoothSolver:  Solving for Ux, Initial residual = 0.010951, Final residual = 0.000465042, No Iterations 2
smoothSolver:  Solving for Uz, Initial residual = 0.00875507, Final residual = 0.00042996, No Iterations 2
GAMG:  Solving for p, Initial residual = 0.00940381, Final residual = 2.74326e-05, No Iterations 3
time step continuity errors : sum local = 4.85178e-08, global = 1.08856e-08
GAMG:  Solving for p, Initial residual = 0.00290525, Final residual = 5.7622e-08, No Iterations 7
time step continuity errors : sum local = 1.01731e-10, global = -2.30428e-11
PIMPLE: Iteration 2
smoothSolver:  Solving for Ux, Initial residual = 0.000311154, Final residual = 5.3476e-07, No Iterations 4
smoothSolver:  Solving for Uz, Initial residual = 0.000476381, Final residual = 9.10009e-07, No Iterations 4
GAMG:  Solving for p, Initial residual = 0.00629954, Final residual = 1.78386e-05, No Iterations 4
time step continuity errors : sum local = 3.15442e-08, global = -4.69385e-09
GAMG:  Solving for p, Initial residual = 0.00285396, Final residual = 2.90571e-08, No Iterations 8
time step continuity errors : sum local = 5.13987e-11, global = 1.03129e-11, cumulative = 2.61088e-11
ExecutionTime = 0.224374 s  ClockTime = 0 s

Courant Number mean: 0.114347 max: 0.988244
deltaT = 0.208487
Time = 1.868993s

PIMPLE: Iteration 1
smoothSolver:  Solving for Ux, Initial residual = 0.0103348, Final residual = 0.00044439, No Iterations 2
smoothSolver:  Solving for Uz, Initial residual = 0.00825146, Final residual = 0.000408737, No Iterations 2
GAMG:  Solving for p, Initial residual = 0.00800684, Final residual = 2.57423e-05, No Iterations 3
time step continuity errors : sum local = 4.55378e-08, global = 1.09297e-08
GAMG:  Solving for p, Initial residual = 0.00265257, Final residual = 5.73197e-08, No Iterations 7
time step continuity errors : sum local = 1.01202e-10, global = -2.63785e-11
PIMPLE: Iteration 2
smoothSolver:  Solving for Ux, Initial residual = 0.000291991, Final residual = 5.15128e-07, No Iterations 4
smoothSolver:  Solving for Uz, Initial residual = 0.000433893, Final residual = 8.52523e-07, No Iterations 4
GAMG:  Solving for p, Initial residual = 0.00557495, Final residual = 1.61849e-05, No Iterations 4
time step continuity errors : sum local = 2.86157e-08, global = -4.2538e-09
GAMG:  Solving for p, Initial residual = 0.00257323, Final residual = 2.57517e-08, No Iterations 8
time step continuity errors : sum local = 4.55495e-11, global = 9.11147e-12, cumulative = 3.52203e-11
ExecutionTime = 0.240632 s  ClockTime = 0 s

Courant Number mean: 0.114424 max: 0.986053
deltaT = 0.208487
Time = 2.07748s

PIMPLE: Iteration 1
smoothSolver:  Solving for Ux, Initial residual = 0.0098135, Final residual = 0.00042642, No Iterations 2
smoothSolver:  Solving for Uz, Initial residual = 0.00784488, Final residual = 0.00039087, No Iterations 2
GAMG:  Solving for p, Initial residual = 0.00731289, Final residual = 2.38208e-05, No Iterations 3
time step continuity errors : sum local = 4.21644e-08, global = 9.60342e-09
GAMG:  Solving for p, Initial residual = 0.00230384, Final residual = 4.21899e-08, No Iterations 7
time step continuity errors : sum local = 7.45988e-11, global = -1.74404e-11
PIMPLE: Iteration 2
smoothSolver:  Solving for Ux, Initial residual = 0.000275525, Final residual = 4.9781e-07, No Iterations 4
smoothSolver:  Solving for Uz, Initial residual = 0.000398194, Final residual = 7.97767e-07, No Iterations 4
GAMG:  Solving for p, Initial residual = 0.0049252, Final residual = 1.38415e-05, No Iterations 4
time step continuity errors : sum local = 2.45014e-08, global = -3.69646e-09
GAMG:  Solving for p, Initial residual = 0.00232016, Final residual = 8.67752e-08, No Iterations 7
time step continuity errors : sum local = 1.53737e-10, global = 3.46985e-11, cumulative = 6.99188e-11
ExecutionTime = 0.256499 s  ClockTime = 0 s

Courant Number mean: 0.114524 max: 0.984292
deltaT = 0.208487
Time = 2.285968s

PIMPLE: Iteration 1
smoothSolver:  Solving for Ux, Initial residual = 0.00934161, Final residual = 0.000409708, No Iterations 2
smoothSolver:  Solving for Uz, Initial residual = 0.00744603, Final residual = 8.44253e-05, No Iterations 3
GAMG:  Solving for p, Initial residual = 0.00714057, Final residual = 4.50639e-05, No Iterations 3
time step continuity errors : sum local = 7.99245e-08, global = 2.20598e-08
GAMG:  Solving for p, Initial residual = 0.00262712, Final residual = 5.86514e-08, No Iterations 9
time step continuity errors : sum local = 1.03952e-10, global = -2.7904e-11
PIMPLE: Iteration 2
smoothSolver:  Solving for Ux, Initial residual = 0.000237929, Final residual = 4.11615e-07, No Iterations 4
smoothSolver:  Solving for Uz, Initial residual = 0.000324165, Final residual = 6.31868e-07, No Iterations 4
GAMG:  Solving for p, Initial residual = 0.00439907, Final residual = 3.94241e-05, No Iterations 3
time step continuity errors : sum local = 6.9939e-08, global = -1.05362e-08
GAMG:  Solving for p, Initial residual = 0.0020966, Final residual = 2.60698e-08, No Iterations 8
time step continuity errors : sum local = 4.62936e-11, global = 1.03112e-11, cumulative = 8.023e-11
ExecutionTime = 0.27339 s  ClockTime = 0 s

Courant Number mean: 0.114638 max: 0.982842
deltaT = 0.208487
Time = 2.494455s

PIMPLE: Iteration 1
smoothSolver:  Solving for Ux, Initial residual = 0.00891997, Final residual = 0.000394376, No Iterations 2
smoothSolver:  Solving for Uz, Initial residual = 0.00710807, Final residual = 8.10122e-05, No Iterations 3
GAMG:  Solving for p, Initial residual = 0.00617771, Final residual = 3.80176e-05, No Iterations 3
time step continuity errors : sum local = 6.75811e-08, global = 1.74302e-08
GAMG:  Solving for p, Initial residual = 0.00237612, Final residual = 6.16808e-08, No Iterations 8
time step continuity errors : sum local = 1.09561e-10, global = -2.84581e-11
PIMPLE: Iteration 2
smoothSolver:  Solving for Ux, Initial residual = 0.000225919, Final residual = 3.96223e-07, No Iterations 4
smoothSolver:  Solving for Uz, Initial residual = 0.000301098, Final residual = 5.96815e-07, No Iterations 4
GAMG:  Solving for p, Initial residual = 0.00400861, Final residual = 3.83487e-05, No Iterations 3
time step continuity errors : sum local = 6.81859e-08, global = -9.74747e-09
GAMG:  Solving for p, Initial residual = 0.0019359, Final residual = 3.09097e-08, No Iterations 8
time step continuity errors : sum local = 5.50075e-11, global = 1.08473e-11, cumulative = 9.10773e-11
ExecutionTime = 0.291024 s  ClockTime = 0 s

Courant Number mean: 0.114761 max: 0.981621
deltaT = 0.208487
Time = 2.702942s

PIMPLE: Iteration 1
smoothSolver:  Solving for Ux, Initial residual = 0.00854825, Final residual = 0.000380297, No Iterations 2
smoothSolver:  Solving for Uz, Initial residual = 0.00680427, Final residual = 7.78167e-05, No Iterations 3
GAMG:  Solving for p, Initial residual = 0.0056829, Final residual = 3.59391e-05, No Iterations 3
time step continuity errors : sum local = 6.40234e-08, global = 1.59241e-08
GAMG:  Solving for p, Initial residual = 0.00220885, Final residual = 5.25595e-08, No Iterations 8
time step continuity errors : sum local = 9.35731e-11, global = -2.43309e-11
PIMPLE: Iteration 2
smoothSolver:  Solving for Ux, Initial residual = 0.000214632, Final residual = 3.81621e-07, No Iterations 4
smoothSolver:  Solving for Uz, Initial residual = 0.000280011, Final residual = 5.62268e-07, No Iterations 4
GAMG:  Solving for p, Initial residual = 0.00366259, Final residual = 3.58616e-05, No Iterations 3
time step continuity errors : sum local = 6.39001e-08, global = -8.95606e-09
GAMG:  Solving for p, Initial residual = 0.0017936, Final residual = 2.68426e-08, No Iterations 8
time step continuity errors : sum local = 4.78655e-11, global = 9.07945e-12, cumulative = 1.00157e-10
ExecutionTime = 0.308742 s  ClockTime = 0 s

Courant Number mean: 0.114896 max: 0.980576
deltaT = 0.208487
Time = 2.91143s

PIMPLE: Iteration 1
smoothSolver:  Solving for Ux, Initial residual = 0.00821091, Final residual = 0.000367527, No Iterations 2
smoothSolver:  Solving for Uz, Initial residual = 0.00652998, Final residual = 7.48382e-05, No Iterations 3
GAMG:  Solving for p, Initial residual = 0.00524322, Final residual = 3.5144e-05, No Iterations 3
time step continuity errors : sum local = 6.27309e-08, global = 1.52792e-08
GAMG:  Solving for p, Initial residual = 0.00207995, Final residual = 5.37516e-08, No Iterations 8
time step continuity errors : sum local = 9.5895e-11, global = -2.52457e-11
PIMPLE: Iteration 2
smoothSolver:  Solving for Ux, Initial residual = 0.000204971, Final residual = 3.69538e-07, No Iterations 4
smoothSolver:  Solving for Uz, Initial residual = 0.000261363, Final residual = 5.33475e-07, No Iterations 4
GAMG:  Solving for p, Initial residual = 0.00337495, Final residual = 7.65374e-06, No Iterations 4
time step continuity errors : sum local = 1.36648e-08, global = -2.07448e-09
GAMG:  Solving for p, Initial residual = 0.00168697, Final residual = 4.10251e-08, No Iterations 7
time step continuity errors : sum local = 7.33092e-11, global = 1.59399e-11, cumulative = 1.16097e-10
ExecutionTime = 0.325643 s  ClockTime = 0 s

Courant Number mean: 0.115037 max: 0.979668
deltaT = 0.208487
Time = 3.119917s

PIMPLE: Iteration 1
smoothSolver:  Solving for Ux, Initial residual = 0.00788613, Final residual = 0.000354917, No Iterations 2
smoothSolver:  Solving for Uz, Initial residual = 0.00627622, Final residual = 7.21166e-05, No Iterations 3
GAMG:  Solving for p, Initial residual = 0.00466873, Final residual = 4.19768e-05, No Iterations 3
time step continuity errors : sum local = 7.50629e-08, global = 1.80922e-08
GAMG:  Solving for p, Initial residual = 0.00190026, Final residual = 9.61075e-08, No Iterations 9
time step continuity errors : sum local = 1.71838e-10, global = -4.68361e-11
PIMPLE: Iteration 2
smoothSolver:  Solving for Ux, Initial residual = 0.000197173, Final residual = 3.60279e-07, No Iterations 4
smoothSolver:  Solving for Uz, Initial residual = 0.000243446, Final residual = 5.03683e-07, No Iterations 4
GAMG:  Solving for p, Initial residual = 0.00312339, Final residual = 7.32157e-06, No Iterations 4
time step continuity errors : sum local = 1.30978e-08, global = -1.97672e-09
GAMG:  Solving for p, Initial residual = 0.00157507, Final residual = 4.02081e-08, No Iterations 7
time step continuity errors : sum local = 7.19892e-11, global = 1.55588e-11, cumulative = 1.31655e-10
ExecutionTime = 0.342492 s  ClockTime = 0 s

Courant Number mean: 0.115187 max: 0.978872
deltaT = 0.208487
Time = 3.328404s

PIMPLE: Iteration 1
smoothSolver:  Solving for Ux, Initial residual = 0.00759518, Final residual = 0.000343613, No Iterations 2
smoothSolver:  Solving for Uz, Initial residual = 0.00603895, Final residual = 6.9583e-05, No Iterations 3
GAMG:  Solving for p, Initial residual = 0.00434742, Final residual = 4.10031e-05, No Iterations 3
time step continuity errors : sum local = 7.34607e-08, global = 1.71287e-08
GAMG:  Solving for p, Initial residual = 0.00178767, Final residual = 8.9642e-08, No Iterations 9
time step continuity errors : sum local = 1.60586e-10, global = -3.06959e-11
PIMPLE: Iteration 2
smoothSolver:  Solving for Ux, Initial residual = 0.00018929, Final residual = 3.49532e-07, No Iterations 4
smoothSolver:  Solving for Uz, Initial residual = 0.00022893, Final residual = 4.78922e-07, No Iterations 4
GAMG:  Solving for p, Initial residual = 0.00291103, Final residual = 6.87259e-06, No Iterations 4
time step continuity errors : sum local = 1.23174e-08, global = -1.85279e-09
GAMG:  Solving for p, Initial residual = 0.00147468, Final residual = 3.71701e-08, No Iterations 7
time step continuity errors : sum local = 6.66692e-11, global = 1.4484e-11, cumulative = 1.46139e-10
ExecutionTime = 0.359304 s  ClockTime = 0 s

Courant Number mean: 0.115342 max: 0.978167
deltaT = 0.208487
Time = 3.536892s

PIMPLE: Iteration 1
smoothSolver:  Solving for Ux, Initial residual = 0.00733137, Final residual = 0.000333007, No Iterations 2
smoothSolver:  Solving for Uz, Initial residual = 0.00581841, Final residual = 6.72289e-05, No Iterations 3
GAMG:  Solving for p, Initial residual = 0.00438209, Final residual = 4.1066e-05, No Iterations 3
time step continuity errors : sum local = 7.37048e-08, global = 1.66746e-08
GAMG:  Solving for p, Initial residual = 0.00172923, Final residual = 3.37673e-08, No Iterations 9
time step continuity errors : sum local = 6.06039e-11, global = 1.79169e-11
PIMPLE: Iteration 2
smoothSolver:  Solving for Ux, Initial residual = 0.000182444, Final residual = 3.39973e-07, No Iterations 4
smoothSolver:  Solving for Uz, Initial residual = 0.000216408, Final residual = 4.56976e-07, No Iterations 4
GAMG:  Solving for p, Initial residual = 0.0027059, Final residual = 6.78143e-06, No Iterations 4
time step continuity errors : sum local = 1.21761e-08, global = -1.83525e-09
GAMG:  Solving for p, Initial residual = 0.00137914, Final residual = 3.79544e-08, No Iterations 7
time step continuity errors : sum local = 6.81962e-11, global = 1.44641e-11, cumulative = 1.60604e-10
ExecutionTime = 0.376115 s  ClockTime = 0 s

Courant Number mean: 0.115506 max: 0.977536
deltaT = 0.208487
Time = 3.745379s

PIMPLE: Iteration 1
smoothSolver:  Solving for Ux, Initial residual = 0.00708448, Final residual = 0.000323138, No Iterations 2
smoothSolver:  Solving for Uz, Initial residual = 0.00561621, Final residual = 6.50948e-05, No Iterations 3
GAMG:  Solving for p, Initial residual = 0.00405357, Final residual = 3.97863e-05, No Iterations 3
time step continuity errors : sum local = 7.15315e-08, global = 1.56304e-08
GAMG:  Solving for p, Initial residual = 0.00160829, Final residual = 1.98181e-08, No Iterations 9
time step continuity errors : sum local = 3.56312e-11, global = 1.84523e-11
PIMPLE: Iteration 2
smoothSolver:  Solving for Ux, Initial residual = 0.000175042, Final residual = 3.30275e-07, No Iterations 4
smoothSolver:  Solving for Uz, Initial residual = 0.000204029, Final residual = 4.3581e-07, No Iterations 4
GAMG:  Solving for p, Initial residual = 0.00253307, Final residual = 6.21409e-06, No Iterations 4
time step continuity errors : sum local = 1.11769e-08, global = -1.67587e-09
GAMG:  Solving for p, Initial residual = 0.00129585, Final residual = 3.31402e-08, No Iterations 7
time step continuity errors : sum local = 5.96489e-11, global = 1.29671e-11, cumulative = 1.73571e-10
ExecutionTime = 0.393029 s  ClockTime = 0 s

Courant Number mean: 0.115681 max: 0.976969
deltaT = 0.208487
Time = 3.953867s

PIMPLE: Iteration 1
smoothSolver:  Solving for Ux, Initial residual = 0.00685646, Final residual = 0.00031413, No Iterations 2
smoothSolver:  Solving for Uz, Initial residual = 0.00542966, Final residual = 6.30565e-05, No Iterations 3
GAMG:  Solving for p, Initial residual = 0.00383024, Final residual = 1.01867e-05, No Iterations 4
time step continuity errors : sum local = 1.83453e-08, global = 4.10026e-09
GAMG:  Solving for p, Initial residual = 0.00154694, Final residual = 3.15394e-08, No Iterations 8
time step continuity errors : sum local = 5.67922e-11, global = -1.3477e-11
PIMPLE: Iteration 2
smoothSolver:  Solving for Ux, Initial residual = 0.000170454, Final residual = 3.23525e-07, No Iterations 4
smoothSolver:  Solving for Uz, Initial residual = 0.000196529, Final residual = 4.25055e-07, No Iterations 4
GAMG:  Solving for p, Initial residual = 0.00238329, Final residual = 1.15763e-05, No Iterations 4
time step continuity errors : sum local = 2.08583e-08, global = -2.06295e-09
GAMG:  Solving for p, Initial residual = 0.00122677, Final residual = 3.3531e-08, No Iterations 8
time step continuity errors : sum local = 6.04405e-11, global = 1.02167e-11, cumulative = 1.83787e-10
ExecutionTime = 0.410328 s  ClockTime = 0 s

Courant Number mean: 0.115866 max: 0.976455
deltaT = 0.208487
Time = 4.162354s

PIMPLE: Iteration 1
smoothSolver:  Solving for Ux, Initial residual = 0.0066434, Final residual = 0.000305583, No Iterations 2
smoothSolver:  Solving for Uz, Initial residual = 0.00525121, Final residual = 6.10994e-05, No Iterations 3
GAMG:  Solving for p, Initial residual = 0.00357629, Final residual = 9.08885e-06, No Iterations 4
time step continuity errors : sum local = 1.63949e-08, global = 3.47873e-09
GAMG:  Solving for p, Initial residual = 0.00147531, Final residual = 9.47441e-08, No Iterations 7
time step continuity errors : sum local = 1.70882e-10, global = -4.80854e-11
PIMPLE: Iteration 2
smoothSolver:  Solving for Ux, Initial residual = 0.000164412, Final residual = 3.14774e-07, No Iterations 4
smoothSolver:  Solving for Uz, Initial residual = 0.000186906, Final residual = 4.08388e-07, No Iterations 4
GAMG:  Solving for p, Initial residual = 0.00224895, Final residual = 1.12438e-05, No Iterations 4
time step continuity errors : sum local = 2.02913e-08, global = -1.87542e-09
GAMG:  Solving for p, Initial residual = 0.00115941, Final residual = 3.2946e-08, No Iterations 8
time step continuity errors : sum local = 5.94775e-11, global = 1.07407e-11, cumulative = 1.94528e-10
ExecutionTime = 0.427239 s  ClockTime = 0 s

Courant Number mean: 0.116062 max: 0.975987
deltaT = 0.208487
Time = 4.370841s

PIMPLE: Iteration 1
smoothSolver:  Solving for Ux, Initial residual = 0.00644412, Final residual = 0.000297232, No Iterations 2
smoothSolver:  Solving for Uz, Initial residual = 0.00508443, Final residual = 5.92755e-05, No Iterations 3
GAMG:  Solving for p, Initial residual = 0.0033026, Final residual = 8.89953e-06, No Iterations 4
time step continuity errors : sum local = 1.60777e-08, global = 3.39543e-09
GAMG:  Solving for p, Initial residual = 0.00139123, Final residual = 9.41662e-08, No Iterations 7
time step continuity errors : sum local = 1.70101e-10, global = -4.84003e-11
PIMPLE: Iteration 2
smoothSolver:  Solving for Ux, Initial residual = 0.000158831, Final residual = 3.06288e-07, No Iterations 4
smoothSolver:  Solving for Uz, Initial residual = 0.000178173, Final residual = 3.92401e-07, No Iterations 4
GAMG:  Solving for p, Initial residual = 0.0021252, Final residual = 1.06589e-05, No Iterations 4
time step continuity errors : sum local = 1.92649e-08, global = -1.79764e-09
GAMG:  Solving for p, Initial residual = 0.00109588, Final residual = 3.03968e-08, No Iterations 8
time step continuity errors : sum local = 5.49584e-11, global = 9.49973e-12, cumulative = 2.04028e-10
ExecutionTime = 0.444207 s  ClockTime = 0 s

Courant Number mean: 0.116273 max: 0.975558
deltaT = 0.208487
Time = 4.579329s

PIMPLE: Iteration 1
smoothSolver:  Solving for Ux, Initial residual = 0.00625801, Final residual = 0.000289441, No Iterations 2
smoothSolver:  Solving for Uz, Initial residual = 0.00492437, Final residual = 5.75341e-05, No Iterations 3
GAMG:  Solving for p, Initial residual = 0.00317415, Final residual = 8.68632e-06, No Iterations 4
time step continuity errors : sum local = 1.57156e-08, global = 3.29051e-09
GAMG:  Solving for p, Initial residual = 0.00132089, Final residual = 9.04536e-08, No Iterations 7
time step continuity errors : sum local = 1.63638e-10, global = -4.69271e-11
PIMPLE: Iteration 2
smoothSolver:  Solving for Ux, Initial residual = 0.000153596, Final residual = 2.98193e-07, No Iterations 4
smoothSolver:  Solving for Uz, Initial residual = 0.000170065, Final residual = 3.77703e-07, No Iterations 4
GAMG:  Solving for p, Initial residual = 0.00201103, Final residual = 1.00934e-05, No Iterations 4
time step continuity errors : sum local = 1.82696e-08, global = -1.72138e-09
GAMG:  Solving for p, Initial residual = 0.0010382, Final residual = 2.79134e-08, No Iterations 8
time step continuity errors : sum local = 5.05416e-11, global = 8.2956e-12, cumulative = 2.12323e-10
ExecutionTime = 0.461104 s  ClockTime = 0 s

Courant Number mean: 0.116497 max: 0.975165
deltaT = 0.208487
Time = 4.787816s

PIMPLE: Iteration 1
smoothSolver:  Solving for Ux, Initial residual = 0.00608309, Final residual = 0.000282127, No Iterations 2
smoothSolver:  Solving for Uz, Initial residual = 0.00477193, Final residual = 5.58765e-05, No Iterations 3
GAMG:  Solving for p, Initial residual = 0.00295984, Final residual = 8.65063e-06, No Iterations 4
time step continuity errors : sum local = 1.56732e-08, global = 3.29483e-09
GAMG:  Solving for p, Initial residual = 0.0012739, Final residual = 9.54316e-08, No Iterations 7
time step continuity errors : sum local = 1.72894e-10, global = -4.95995e-11
PIMPLE: Iteration 2
smoothSolver:  Solving for Ux, Initial residual = 0.000148587, Final residual = 2.91027e-07, No Iterations 4
smoothSolver:  Solving for Uz, Initial residual = 0.000162583, Final residual = 3.64581e-07, No Iterations 4
GAMG:  Solving for p, Initial residual = 0.00190012, Final residual = 9.55818e-06, No Iterations 4
time step continuity errors : sum local = 1.73241e-08, global = -1.67964e-09
GAMG:  Solving for p, Initial residual = 0.000983667, Final residual = 2.55072e-08, No Iterations 8
time step continuity errors : sum local = 4.62444e-11, global = 7.19861e-12, cumulative = 2.19522e-10
ExecutionTime = 0.477938 s  ClockTime = 0 s

Courant Number mean: 0.116729 max: 0.974801
deltaT = 0.208487
Time = 4.996303s

PIMPLE: Iteration 1
smoothSolver:  Solving for Ux, Initial residual = 0.00591796, Final residual = 0.000275269, No Iterations 2
smoothSolver:  Solving for Uz, Initial residual = 0.00462935, Final residual = 5.43224e-05, No Iterations 3
GAMG:  Solving for p, Initial residual = 0.00281785, Final residual = 8.60335e-06, No Iterations 4
time step continuity errors : sum local = 1.56073e-08, global = 3.28369e-09
GAMG:  Solving for p, Initial residual = 0.0012305, Final residual = 9.93973e-08, No Iterations 7
time step continuity errors : sum local = 1.80308e-10, global = -5.12069e-11
PIMPLE: Iteration 2
smoothSolver:  Solving for Ux, Initial residual = 0.000143818, Final residual = 2.83646e-07, No Iterations 4
smoothSolver:  Solving for Uz, Initial residual = 0.000155876, Final residual = 3.51989e-07, No Iterations 4
GAMG:  Solving for p, Initial residual = 0.0018056, Final residual = 9.11065e-06, No Iterations 4
time step continuity errors : sum local = 1.65332e-08, global = -1.60112e-09
GAMG:  Solving for p, Initial residual = 0.000935586, Final residual = 2.29343e-08, No Iterations 8
time step continuity errors : sum local = 4.16299e-11, global = 6.34879e-12, cumulative = 2.25871e-10
ExecutionTime = 0.495203 s  ClockTime = 0 s

Courant Number mean: 0.116966 max: 0.974465
deltaT = 0.208487
Time = 5.204791s

PIMPLE: Iteration 1
smoothSolver:  Solving for Ux, Initial residual = 0.00576184, Final residual = 0.000268809, No Iterations 2
smoothSolver:  Solving for Uz, Initial residual = 0.0044975, Final residual = 5.2855e-05, No Iterations 3
GAMG:  Solving for p, Initial residual = 0.00271247, Final residual = 8.52034e-06, No Iterations 4
time step continuity errors : sum local = 1.54751e-08, global = 3.2471e-09
GAMG:  Solving for p, Initial residual = 0.00118736, Final residual = 2.55241e-08, No Iterations 8
time step continuity errors : sum local = 4.63562e-11, global = -1.09085e-11
PIMPLE: Iteration 2
smoothSolver:  Solving for Ux, Initial residual = 0.000139467, Final residual = 2.76664e-07, No Iterations 4
smoothSolver:  Solving for Uz, Initial residual = 0.000149681, Final residual = 3.40078e-07, No Iterations 4
GAMG:  Solving for p, Initial residual = 0.00171728, Final residual = 8.73146e-06, No Iterations 4
time step continuity errors : sum local = 1.58634e-08, global = -1.53364e-09
GAMG:  Solving for p, Initial residual = 0.000891861, Final residual = 2.14097e-08, No Iterations 8
time step continuity errors : sum local = 3.8907e-11, global = 5.85222e-12, cumulative = 2.31723e-10
ExecutionTime = 0.512664 s  ClockTime = 0 s

Courant Number mean: 0.117206 max: 0.974152
deltaT = 0.208487
Time = 5.413278s

PIMPLE: Iteration 1
smoothSolver:  Solving for Ux, Initial residual = 0.00561476, Final residual = 0.000262552, No Iterations 2
smoothSolver:  Solving for Uz, Initial residual = 0.00437116, Final residual = 5.1457e-05, No Iterations 3
GAMG:  Solving for p, Initial residual = 0.00249429, Final residual = 8.08581e-06, No Iterations 4
time step continuity errors : sum local = 1.47024e-08, global = 3.02357e-09
GAMG:  Solving for p, Initial residual = 0.0011142, Final residual = 8.83379e-08, No Iterations 7
time step continuity errors : sum local = 1.6062e-10, global = -4.67424e-11
PIMPLE: Iteration 2
smoothSolver:  Solving for Ux, Initial residual = 0.000135296, Final residual = 2.70008e-07, No Iterations 4
smoothSolver:  Solving for Uz, Initial residual = 0.000143682, Final residual = 3.28289e-07, No Iterations 4
GAMG:  Solving for p, Initial residual = 0.00163843, Final residual = 8.35859e-06, No Iterations 4
time step continuity errors : sum local = 1.52031e-08, global = -1.46915e-09
GAMG:  Solving for p, Initial residual = 0.000850155, Final residual = 1.97515e-08, No Iterations 8
time step continuity errors : sum local = 3.59336e-11, global = 5.32973e-12, cumulative = 2.37053e-10
ExecutionTime = 0.529689 s  ClockTime = 0 s

Courant Number mean: 0.117447 max: 0.973861
deltaT = 0.208487
Time = 5.621765s

PIMPLE: Iteration 1
smoothSolver:  Solving for Ux, Initial residual = 0.00547867, Final residual = 0.000256533, No Iterations 2
smoothSolver:  Solving for Uz, Initial residual = 0.00424981, Final residual = 5.01093e-05, No Iterations 3
GAMG:  Solving for p, Initial residual = 0.00242511, Final residual = 7.9969e-06, No Iterations 4
time step continuity errors : sum local = 1.45568e-08, global = 2.9843e-09
GAMG:  Solving for p, Initial residual = 0.00107367, Final residual = 9.04022e-08, No Iterations 7
time step continuity errors : sum local = 1.64559e-10, global = -4.73378e-11
PIMPLE: Iteration 2
smoothSolver:  Solving for Ux, Initial residual = 0.000131139, Final residual = 2.63976e-07, No Iterations 4
smoothSolver:  Solving for Uz, Initial residual = 0.000137958, Final residual = 3.17447e-07, No Iterations 4
GAMG:  Solving for p, Initial residual = 0.00156072, Final residual = 7.95904e-06, No Iterations 4
time step continuity errors : sum local = 1.44925e-08, global = -1.4241e-09
GAMG:  Solving for p, Initial residual = 0.000811256, Final residual = 9.0933e-08, No Iterations 7
time step continuity errors : sum local = 1.65616e-10, global = 3.54768e-11, cumulative = 2.7253e-10
ExecutionTime = 0.546247 s  ClockTime = 0 s

Courant Number mean: 0.117692 max: 0.973588
deltaT = 0.208487
Time = 5.830253s

PIMPLE: Iteration 1
smoothSolver:  Solving for Ux, Initial residual = 0.0053483, Final residual = 0.000250777, No Iterations 2
smoothSolver:  Solving for Uz, Initial residual = 0.00413289, Final residual = 4.88243e-05, No Iterations 3
GAMG:  Solving for p, Initial residual = 0.00233712, Final residual = 7.79642e-06, No Iterations 4
time step continuity errors : sum local = 1.42066e-08, global = 2.89023e-09
GAMG:  Solving for p, Initial residual = 0.0010382, Final residual = 8.7477e-08, No Iterations 7
time step continuity errors : sum local = 1.59396e-10, global = -4.60334e-11
PIMPLE: Iteration 2
smoothSolver:  Solving for Ux, Initial residual = 0.000127684, Final residual = 2.58184e-07, No Iterations 4
smoothSolver:  Solving for Uz, Initial residual = 0.0001328, Final residual = 3.07347e-07, No Iterations 4
GAMG:  Solving for p, Initial residual = 0.00148944, Final residual = 7.64043e-06, No Iterations 4
time step continuity errors : sum local = 1.39262e-08, global = -1.37287e-09
GAMG:  Solving for p, Initial residual = 0.000774933, Final residual = 8.33631e-08, No Iterations 7
time step continuity errors : sum local = 1.5198e-10, global = 3.31826e-11, cumulative = 3.05712e-10
ExecutionTime = 0.562572 s  ClockTime = 0 s

Courant Number mean: 0.117939 max: 0.973333
deltaT = 0.208487
Time = 6.03874s

PIMPLE: Iteration 1
smoothSolver:  Solving for Ux, Initial residual = 0.0052228, Final residual = 0.000245336, No Iterations 2
smoothSolver:  Solving for Uz, Initial residual = 0.00402154, Final residual = 4.75935e-05, No Iterations 3
GAMG:  Solving for p, Initial residual = 0.00225012, Final residual = 7.62577e-06, No Iterations 4
time step continuity errors : sum local = 1.39093e-08, global = 2.80944e-09
GAMG:  Solving for p, Initial residual = 0.000992527, Final residual = 8.62876e-08, No Iterations 7
time step continuity errors : sum local = 1.57386e-10, global = -4.53537e-11
PIMPLE: Iteration 2
smoothSolver:  Solving for Ux, Initial residual = 0.000124211, Final residual = 2.52631e-07, No Iterations 4
smoothSolver:  Solving for Uz, Initial residual = 0.000128016, Final residual = 2.97573e-07, No Iterations 4
GAMG:  Solving for p, Initial residual = 0.00142177, Final residual = 7.33006e-06, No Iterations 4
time step continuity errors : sum local = 1.33735e-08, global = -1.32427e-09
GAMG:  Solving for p, Initial residual = 0.000740742, Final residual = 7.59982e-08, No Iterations 7
time step continuity errors : sum local = 1.38687e-10, global = 3.07527e-11, cumulative = 3.36465e-10
ExecutionTime = 0.578973 s  ClockTime = 0 s

Courant Number mean: 0.118185 max: 0.973093
deltaT = 0.208487
Time = 6.247228s

PIMPLE: Iteration 1
smoothSolver:  Solving for Ux, Initial residual = 0.00510353, Final residual = 0.000240217, No Iterations 2
smoothSolver:  Solving for Uz, Initial residual = 0.00391495, Final residual = 4.64033e-05, No Iterations 3
GAMG:  Solving for p, Initial residual = 0.0021733, Final residual = 7.74924e-06, No Iterations 4
time step continuity errors : sum local = 1.41478e-08, global = 2.86536e-09
GAMG:  Solving for p, Initial residual = 0.000971594, Final residual = 9.70138e-08, No Iterations 7
time step continuity errors : sum local = 1.77117e-10, global = -4.82859e-11
PIMPLE: Iteration 2
smoothSolver:  Solving for Ux, Initial residual = 0.00012097, Final residual = 2.47421e-07, No Iterations 4
smoothSolver:  Solving for Uz, Initial residual = 0.000123358, Final residual = 2.88362e-07, No Iterations 4
GAMG:  Solving for p, Initial residual = 0.00136095, Final residual = 6.97004e-06, No Iterations 4
time step continuity errors : sum local = 1.27284e-08, global = -1.30659e-09
GAMG:  Solving for p, Initial residual = 0.000708766, Final residual = 6.73052e-08, No Iterations 7
time step continuity errors : sum local = 1.22935e-10, global = 2.67239e-11, cumulative = 3.63189e-10
ExecutionTime = 0.595698 s  ClockTime = 0 s

Courant Number mean: 0.11843 max: 0.972867
deltaT = 0.208487
Time = 6.455715s

PIMPLE: Iteration 1
smoothSolver:  Solving for Ux, Initial residual = 0.00498973, Final residual = 0.000235406, No Iterations 2
smoothSolver:  Solving for Uz, Initial residual = 0.00381466, Final residual = 4.52754e-05, No Iterations 3
GAMG:  Solving for p, Initial residual = 0.00205147, Final residual = 7.45273e-06, No Iterations 4
time step continuity errors : sum local = 1.36185e-08, global = 2.72667e-09
GAMG:  Solving for p, Initial residual = 0.000927058, Final residual = 8.90162e-08, No Iterations 7
time step continuity errors : sum local = 1.62658e-10, global = -4.55241e-11
PIMPLE: Iteration 2
smoothSolver:  Solving for Ux, Initial residual = 0.000117674, Final residual = 2.4224e-07, No Iterations 4
smoothSolver:  Solving for Uz, Initial residual = 0.000118957, Final residual = 2.79503e-07, No Iterations 4
GAMG:  Solving for p, Initial residual = 0.00129893, Final residual = 6.72056e-06, No Iterations 4
time step continuity errors : sum local = 1.22834e-08, global = -1.25111e-09
GAMG:  Solving for p, Initial residual = 0.000679343, Final residual = 6.24317e-08, No Iterations 7
time step continuity errors : sum local = 1.1413e-10, global = 2.50521e-11, cumulative = 3.88241e-10
ExecutionTime = 0.612016 s  ClockTime = 0 s

Courant Number mean: 0.118676 max: 0.972654
deltaT = 0.208487
Time = 6.664202s

PIMPLE: Iteration 1
smoothSolver:  Solving for Ux, Initial residual = 0.0048812, Final residual = 0.000230746, No Iterations 2
smoothSolver:  Solving for Uz, Initial residual = 0.00371933, Final residual = 4.41852e-05, No Iterations 3
GAMG:  Solving for p, Initial residual = 0.00196584, Final residual = 7.3529e-06, No Iterations 4
time step continuity errors : sum local = 1.34471e-08, global = 2.67665e-09
GAMG:  Solving for p, Initial residual = 0.000895631, Final residual = 8.97252e-08, No Iterations 7
time step continuity errors : sum local = 1.64088e-10, global = -4.52922e-11
PIMPLE: Iteration 2
smoothSolver:  Solving for Ux, Initial residual = 0.000114974, Final residual = 2.3747e-07, No Iterations 4
smoothSolver:  Solving for Uz, Initial residual = 0.000114867, Final residual = 2.71112e-07, No Iterations 4
GAMG:  Solving for p, Initial residual = 0.00124316, Final residual = 6.48858e-06, No Iterations 4
time step continuity errors : sum local = 1.18689e-08, global = -1.19377e-09
GAMG:  Solving for p, Initial residual = 0.000651422, Final residual = 5.72004e-08, No Iterations 7
time step continuity errors : sum local = 1.0465e-10, global = 2.21975e-11, cumulative = 4.10438e-10
ExecutionTime = 0.62834 s  ClockTime = 0 s

Courant Number mean: 0.118922 max: 0.972452
deltaT = 0.208487
Time = 6.87269s

PIMPLE: Iteration 1
smoothSolver:  Solving for Ux, Initial residual = 0.00477986, Final residual = 0.000226188, No Iterations 2
smoothSolver:  Solving for Uz, Initial residual = 0.00362746, Final residual = 4.31556e-05, No Iterations 3
GAMG:  Solving for p, Initial residual = 0.00188284, Final residual = 7.25889e-06, No Iterations 4
time step continuity errors : sum local = 1.32856e-08, global = 2.6284e-09
GAMG:  Solving for p, Initial residual = 0.000864548, Final residual = 8.94207e-08, No Iterations 7
time step continuity errors : sum local = 1.63658e-10, global = -4.47533e-11
PIMPLE: Iteration 2
smoothSolver:  Solving for Ux, Initial residual = 0.00011221, Final residual = 2.32923e-07, No Iterations 4
smoothSolver:  Solving for Uz, Initial residual = 0.000111149, Final residual = 2.63134e-07, No Iterations 4
GAMG:  Solving for p, Initial residual = 0.00119391, Final residual = 6.20278e-06, No Iterations 4
time step continuity errors : sum local = 1.13546e-08, global = -1.16057e-09
GAMG:  Solving for p, Initial residual = 0.000625016, Final residual = 5.21876e-08, No Iterations 7
time step continuity errors : sum local = 9.555e-11, global = 1.95453e-11, cumulative = 4.29984e-10
ExecutionTime = 0.644665 s  ClockTime = 0 s

Courant Number mean: 0.119165 max: 0.972261
deltaT = 0.208487
Time = 7.081177s

PIMPLE: Iteration 1
smoothSolver:  Solving for Ux, Initial residual = 0.00468203, Final residual = 0.000221738, No Iterations 2
smoothSolver:  Solving for Uz, Initial residual = 0.00353922, Final residual = 4.21757e-05, No Iterations 3
GAMG:  Solving for p, Initial residual = 0.00183652, Final residual = 7.20646e-06, No Iterations 4
time step continuity errors : sum local = 1.31991e-08, global = 2.60017e-09
GAMG:  Solving for p, Initial residual = 0.000839969, Final residual = 9.43596e-08, No Iterations 7
time step continuity errors : sum local = 1.7282e-10, global = -4.55148e-11
PIMPLE: Iteration 2
smoothSolver:  Solving for Ux, Initial residual = 0.000109538, Final residual = 2.28522e-07, No Iterations 4
smoothSolver:  Solving for Uz, Initial residual = 0.000107458, Final residual = 2.55591e-07, No Iterations 4
GAMG:  Solving for p, Initial residual = 0.00114669, Final residual = 5.94287e-06, No Iterations 4
time step continuity errors : sum local = 1.08864e-08, global = -1.1317e-09
GAMG:  Solving for p, Initial residual = 0.000600314, Final residual = 4.80808e-08, No Iterations 7
time step continuity errors : sum local = 8.80916e-11, global = 1.73076e-11, cumulative = 4.47291e-10
ExecutionTime = 0.661149 s  ClockTime = 0 s

Courant Number mean: 0.119405 max: 0.972079
deltaT = 0.208487
Time = 7.289664s

PIMPLE: Iteration 1
smoothSolver:  Solving for Ux, Initial residual = 0.00458825, Final residual = 0.000217476, No Iterations 2
smoothSolver:  Solving for Uz, Initial residual = 0.00345381, Final residual = 4.12206e-05, No Iterations 3
GAMG:  Solving for p, Initial residual = 0.001751, Final residual = 7.06396e-06, No Iterations 4
time step continuity errors : sum local = 1.29475e-08, global = 2.52991e-09
GAMG:  Solving for p, Initial residual = 0.000813064, Final residual = 9.1199e-08, No Iterations 7
time step continuity errors : sum local = 1.6716e-10, global = -4.42309e-11
PIMPLE: Iteration 2
smoothSolver:  Solving for Ux, Initial residual = 0.000106953, Final residual = 2.24254e-07, No Iterations 4
smoothSolver:  Solving for Uz, Initial residual = 0.000104119, Final residual = 2.48768e-07, No Iterations 4
GAMG:  Solving for p, Initial residual = 0.00110566, Final residual = 5.71942e-06, No Iterations 4
time step continuity errors : sum local = 1.0485e-08, global = -1.09657e-09
GAMG:  Solving for p, Initial residual = 0.000577159, Final residual = 4.47426e-08, No Iterations 7
time step continuity errors : sum local = 8.20371e-11, global = 1.56859e-11, cumulative = 4.62977e-10
ExecutionTime = 0.677886 s  ClockTime = 0 s

Courant Number mean: 0.119644 max: 0.971906
deltaT = 0.208487
Time = 7.498152s

PIMPLE: Iteration 1
smoothSolver:  Solving for Ux, Initial residual = 0.00449652, Final residual = 0.00021337, No Iterations 2
smoothSolver:  Solving for Uz, Initial residual = 0.00337198, Final residual = 4.02998e-05, No Iterations 3
GAMG:  Solving for p, Initial residual = 0.00169595, Final residual = 6.97333e-06, No Iterations 4
time step continuity errors : sum local = 1.27909e-08, global = 2.48506e-09
GAMG:  Solving for p, Initial residual = 0.000787879, Final residual = 9.25287e-08, No Iterations 7
time step continuity errors : sum local = 1.69726e-10, global = -4.40381e-11
PIMPLE: Iteration 2
smoothSolver:  Solving for Ux, Initial residual = 0.000104555, Final residual = 2.20292e-07, No Iterations 4
smoothSolver:  Solving for Uz, Initial residual = 0.00010093, Final residual = 2.42151e-07, No Iterations 4
GAMG:  Solving for p, Initial residual = 0.00105938, Final residual = 5.49206e-06, No Iterations 4
time step continuity errors : sum local = 1.00758e-08, global = -1.06668e-09
GAMG:  Solving for p, Initial residual = 0.000554882, Final residual = 4.1366e-08, No Iterations 7
time step continuity errors : sum local = 7.59029e-11, global = 1.3893e-11, cumulative = 4.7687e-10
ExecutionTime = 0.69452 s  ClockTime = 0 s

Courant Number mean: 0.119881 max: 0.971742
deltaT = 0.208487
Time = 7.706639s

PIMPLE: Iteration 1
smoothSolver:  Solving for Ux, Initial residual = 0.00440814, Final residual = 0.000209453, No Iterations 2
smoothSolver:  Solving for Uz, Initial residual = 0.00329302, Final residual = 3.94043e-05, No Iterations 3
GAMG:  Solving for p, Initial residual = 0.00167881, Final residual = 6.81846e-06, No Iterations 4
time step continuity errors : sum local = 1.25161e-08, global = 2.41422e-09
GAMG:  Solving for p, Initial residual = 0.000762926, Final residual = 8.8836e-08, No Iterations 7
time step continuity errors : sum local = 1.63074e-10, global = -4.26002e-11
PIMPLE: Iteration 2
smoothSolver:  Solving for Ux, Initial residual = 0.000102261, Final residual = 9.83936e-07, No Iterations 3
smoothSolver:  Solving for Uz, Initial residual = 9.7857e-05, Final residual = 2.35898e-07, No Iterations 4
GAMG:  Solving for p, Initial residual = 0.00102013, Final residual = 5.3152e-06, No Iterations 4
time step continuity errors : sum local = 9.75865e-09, global = -1.03143e-09
GAMG:  Solving for p, Initial residual = 0.000534333, Final residual = 3.92528e-08, No Iterations 7
time step continuity errors : sum local = 7.20795e-11, global = 1.31654e-11, cumulative = 4.90036e-10
ExecutionTime = 0.711159 s  ClockTime = 1 s

Courant Number mean: 0.120116 max: 0.971585
deltaT = 0.208487
Time = 7.915126s

PIMPLE: Iteration 1
smoothSolver:  Solving for Ux, Initial residual = 0.00432243, Final residual = 0.000205737, No Iterations 2
smoothSolver:  Solving for Uz, Initial residual = 0.00321692, Final residual = 3.85314e-05, No Iterations 3
GAMG:  Solving for p, Initial residual = 0.00161469, Final residual = 6.97545e-06, No Iterations 4
time step continuity errors : sum local = 1.28135e-08, global = 2.46797e-09
GAMG:  Solving for p, Initial residual = 0.000748457, Final residual = 2.15366e-08, No Iterations 8
time step continuity errors : sum local = 3.95621e-11, global = -1.04402e-11
PIMPLE: Iteration 2
smoothSolver:  Solving for Ux, Initial residual = 0.000100166, Final residual = 9.67424e-07, No Iterations 3
smoothSolver:  Solving for Uz, Initial residual = 9.49519e-05, Final residual = 2.29924e-07, No Iterations 4
GAMG:  Solving for p, Initial residual = 0.000983106, Final residual = 5.16304e-06, No Iterations 4
time step continuity errors : sum local = 9.48576e-09, global = -1.00088e-09
GAMG:  Solving for p, Initial residual = 0.000515684, Final residual = 3.72735e-08, No Iterations 7
time step continuity errors : sum local = 6.84912e-11, global = 1.25386e-11, cumulative = 5.02574e-10
ExecutionTime = 0.728015 s  ClockTime = 1 s

Courant Number mean: 0.120349 max: 0.971435
deltaT = 0.208487
Time = 8.123614s

PIMPLE: Iteration 1
smoothSolver:  Solving for Ux, Initial residual = 0.00424004, Final residual = 0.000202205, No Iterations 2
smoothSolver:  Solving for Uz, Initial residual = 0.00314494, Final residual = 3.7702e-05, No Iterations 3
GAMG:  Solving for p, Initial residual = 0.00152298, Final residual = 6.69571e-06, No Iterations 4
time step continuity errors : sum local = 1.23076e-08, global = 2.3466e-09
GAMG:  Solving for p, Initial residual = 0.00071942, Final residual = 9.69871e-08, No Iterations 7
time step continuity errors : sum local = 1.78276e-10, global = -4.35711e-11
PIMPLE: Iteration 2
smoothSolver:  Solving for Ux, Initial residual = 9.80189e-05, Final residual = 9.49473e-07, No Iterations 3
smoothSolver:  Solving for Uz, Initial residual = 9.21502e-05, Final residual = 9.82263e-07, No Iterations 3
GAMG:  Solving for p, Initial residual = 0.000946459, Final residual = 4.83264e-06, No Iterations 4
time step continuity errors : sum local = 8.88437e-09, global = -9.73533e-10
GAMG:  Solving for p, Initial residual = 0.000494213, Final residual = 3.24982e-08, No Iterations 7
time step continuity errors : sum local = 5.97541e-11, global = 9.59322e-12, cumulative = 5.12167e-10
ExecutionTime = 0.744294 s  ClockTime = 1 s

Courant Number mean: 0.120579 max: 0.971291
deltaT = 0.208487
Time = 8.332101s

PIMPLE: Iteration 1
smoothSolver:  Solving for Ux, Initial residual = 0.00416265, Final residual = 0.000198775, No Iterations 2
smoothSolver:  Solving for Uz, Initial residual = 0.00307532, Final residual = 3.68994e-05, No Iterations 3
GAMG:  Solving for p, Initial residual = 0.00147803, Final residual = 6.61922e-06, No Iterations 4
time step continuity errors : sum local = 1.21745e-08, global = 2.30695e-09
GAMG:  Solving for p, Initial residual = 0.000698947, Final residual = 9.82128e-08, No Iterations 7
time step continuity errors : sum local = 1.80641e-10, global = -4.336e-11
PIMPLE: Iteration 2
smoothSolver:  Solving for Ux, Initial residual = 9.59828e-05, Final residual = 9.3332e-07, No Iterations 3
smoothSolver:  Solving for Uz, Initial residual = 8.9543e-05, Final residual = 9.57031e-07, No Iterations 3
GAMG:  Solving for p, Initial residual = 0.000913636, Final residual = 4.62345e-06, No Iterations 4
time step continuity errors : sum local = 8.50497e-09, global = -9.46227e-10
GAMG:  Solving for p, Initial residual = 0.000476622, Final residual = 3.00579e-08, No Iterations 7
time step continuity errors : sum local = 5.53004e-11, global = 8.51611e-12, cumulative = 5.20684e-10
ExecutionTime = 0.760547 s  ClockTime = 1 s

Courant Number mean: 0.120811 max: 0.971153
deltaT = 0.208487
Time = 8.540588s

PIMPLE: Iteration 1
smoothSolver:  Solving for Ux, Initial residual = 0.0040897, Final residual = 0.000195426, No Iterations 2
smoothSolver:  Solving for Uz, Initial residual = 0.00300795, Final residual = 3.61358e-05, No Iterations 3
GAMG:  Solving for p, Initial residual = 0.0014274, Final residual = 6.57952e-06, No Iterations 4
time step continuity errors : sum local = 1.21085e-08, global = 2.28273e-09
GAMG:  Solving for p, Initial residual = 0.000679678, Final residual = 1.99543e-08, No Iterations 8
time step continuity errors : sum local = 3.67225e-11, global = -9.83656e-12
PIMPLE: Iteration 2
smoothSolver:  Solving for Ux, Initial residual = 9.41056e-05, Final residual = 9.17763e-07, No Iterations 3
smoothSolver:  Solving for Uz, Initial residual = 8.70691e-05, Final residual = 9.33131e-07, No Iterations 3
GAMG:  Solving for p, Initial residual = 0.000882238, Final residual = 4.50729e-06, No Iterations 4
time step continuity errors : sum local = 8.29595e-09, global = -9.03788e-10
GAMG:  Solving for p, Initial residual = 0.000460379, Final residual = 2.88326e-08, No Iterations 7
time step continuity errors : sum local = 5.30756e-11, global = 8.21229e-12, cumulative = 5.28896e-10
ExecutionTime = 0.777567 s  ClockTime = 1 s

Courant Number mean: 0.121042 max: 0.971021
deltaT = 0.208487
Time = 8.749076s

PIMPLE: Iteration 1
smoothSolver:  Solving for Ux, Initial residual = 0.00401869, Final residual = 0.000192165, No Iterations 2
smoothSolver:  Solving for Uz, Initial residual = 0.00294289, Final residual = 3.53961e-05, No Iterations 3
GAMG:  Solving for p, Initial residual = 0.00137305, Final residual = 6.46701e-06, No Iterations 4
time step continuity errors : sum local = 1.1908e-08, global = 2.22785e-09
GAMG:  Solving for p, Initial residual = 0.000660483, Final residual = 1.93864e-08, No Iterations 8
time step continuity errors : sum local = 3.5697e-11, global = -9.59508e-12
PIMPLE: Iteration 2
smoothSolver:  Solving for Ux, Initial residual = 9.22426e-05, Final residual = 9.02977e-07, No Iterations 3
smoothSolver:  Solving for Uz, Initial residual = 8.4681e-05, Final residual = 9.1e-07, No Iterations 3
GAMG:  Solving for p, Initial residual = 0.000853264, Final residual = 4.33361e-06, No Iterations 4
time step continuity errors : sum local = 7.98064e-09, global = -8.75489e-10
GAMG:  Solving for p, Initial residual = 0.000445527, Final residual = 2.68918e-08, No Iterations 7
time step continuity errors : sum local = 4.95296e-11, global = 7.37888e-12, cumulative = 5.36275e-10
ExecutionTime = 0.794682 s  ClockTime = 1 s

Courant Number mean: 0.121269 max: 0.970894
deltaT = 0.208487
Time = 8.957563s

PIMPLE: Iteration 1
smoothSolver:  Solving for Ux, Initial residual = 0.00394964, Final residual = 0.000188979, No Iterations 2
smoothSolver:  Solving for Uz, Initial residual = 0.00287985, Final residual = 3.46742e-05, No Iterations 3
GAMG:  Solving for p, Initial residual = 0.00135263, Final residual = 6.39655e-06, No Iterations 4
time step continuity errors : sum local = 1.17845e-08, global = 2.18911e-09
GAMG:  Solving for p, Initial residual = 0.000647774, Final residual = 1.89986e-08, No Iterations 8
time step continuity errors : sum local = 3.50013e-11, global = -9.49542e-12
PIMPLE: Iteration 2
smoothSolver:  Solving for Ux, Initial residual = 9.04639e-05, Final residual = 8.88604e-07, No Iterations 3
smoothSolver:  Solving for Uz, Initial residual = 8.23723e-05, Final residual = 8.88133e-07, No Iterations 3
GAMG:  Solving for p, Initial residual = 0.000823858, Final residual = 4.14609e-06, No Iterations 4
time step continuity errors : sum local = 7.63924e-09, global = -8.51201e-10
GAMG:  Solving for p, Initial residual = 0.000431133, Final residual = 2.48845e-08, No Iterations 7
time step continuity errors : sum local = 4.5856e-11, global = 6.60188e-12, cumulative = 5.42877e-10
ExecutionTime = 0.811462 s  ClockTime = 1 s

Courant Number mean: 0.121495 max: 0.970772
deltaT = 0.208487
Time = 9.166051s

PIMPLE: Iteration 1
smoothSolver:  Solving for Ux, Initial residual = 0.00388186, Final residual = 0.000185885, No Iterations 2
smoothSolver:  Solving for Uz, Initial residual = 0.00281898, Final residual = 3.39741e-05, No Iterations 3
GAMG:  Solving for p, Initial residual = 0.00129372, Final residual = 6.38305e-06, No Iterations 4
time step continuity errors : sum local = 1.17656e-08, global = 2.17318e-09
GAMG:  Solving for p, Initial residual = 0.000629559, Final residual = 1.94819e-08, No Iterations 8
time step continuity errors : sum local = 3.59102e-11, global = -1.00409e-11
PIMPLE: Iteration 2
smoothSolver:  Solving for Ux, Initial residual = 8.88118e-05, Final residual = 8.74972e-07, No Iterations 3
smoothSolver:  Solving for Uz, Initial residual = 8.01559e-05, Final residual = 8.66704e-07, No Iterations 3
GAMG:  Solving for p, Initial residual = 0.000797466, Final residual = 3.99134e-06, No Iterations 4
time step continuity errors : sum local = 7.35784e-09, global = -8.30444e-10
GAMG:  Solving for p, Initial residual = 0.000417208, Final residual = 2.32218e-08, No Iterations 7
time step continuity errors : sum local = 4.28134e-11, global = 6.09794e-12, cumulative = 5.48975e-10
ExecutionTime = 0.828201 s  ClockTime = 1 s

Courant Number mean: 0.121719 max: 0.970654
deltaT = 0.208487
Time = 9.374538s

PIMPLE: Iteration 1
smoothSolver:  Solving for Ux, Initial residual = 0.00381618, Final residual = 0.000182923, No Iterations 2
smoothSolver:  Solving for Uz, Initial residual = 0.00276006, Final residual = 3.32937e-05, No Iterations 3
GAMG:  Solving for p, Initial residual = 0.00125184, Final residual = 6.28324e-06, No Iterations 4
time step continuity errors : sum local = 1.15873e-08, global = 2.12627e-09
GAMG:  Solving for p, Initial residual = 0.000613027, Final residual = 1.91362e-08, No Iterations 8
time step continuity errors : sum local = 3.52905e-11, global = -9.93734e-12
PIMPLE: Iteration 2
smoothSolver:  Solving for Ux, Initial residual = 8.71909e-05, Final residual = 8.61253e-07, No Iterations 3
smoothSolver:  Solving for Uz, Initial residual = 7.80871e-05, Final residual = 8.46476e-07, No Iterations 3
GAMG:  Solving for p, Initial residual = 0.000773795, Final residual = 3.84663e-06, No Iterations 4
time step continuity errors : sum local = 7.09455e-09, global = -8.06509e-10
GAMG:  Solving for p, Initial residual = 0.000404566, Final residual = 2.17569e-08, No Iterations 7
time step continuity errors : sum local = 4.01321e-11, global = 5.66187e-12, cumulative = 5.54636e-10
ExecutionTime = 0.844858 s  ClockTime = 1 s

Courant Number mean: 0.121941 max: 0.970541
deltaT = 0.208487
Time = 9.583025s

PIMPLE: Iteration 1
smoothSolver:  Solving for Ux, Initial residual = 0.00375227, Final residual = 0.000180063, No Iterations 2
smoothSolver:  Solving for Uz, Initial residual = 0.0027028, Final residual = 3.26326e-05, No Iterations 3
GAMG:  Solving for p, Initial residual = 0.00121692, Final residual = 6.2265e-06, No Iterations 4
time step continuity errors : sum local = 1.14882e-08, global = 2.09459e-09
GAMG:  Solving for p, Initial residual = 0.000598797, Final residual = 1.91384e-08, No Iterations 8
time step continuity errors : sum local = 3.53116e-11, global = -1.00727e-11
PIMPLE: Iteration 2
smoothSolver:  Solving for Ux, Initial residual = 8.56291e-05, Final residual = 8.48207e-07, No Iterations 3
smoothSolver:  Solving for Uz, Initial residual = 7.60695e-05, Final residual = 8.26747e-07, No Iterations 3
GAMG:  Solving for p, Initial residual = 0.000750287, Final residual = 3.70156e-06, No Iterations 4
time step continuity errors : sum local = 6.83026e-09, global = -7.85413e-10
GAMG:  Solving for p, Initial residual = 0.000392212, Final residual = 2.02435e-08, No Iterations 7
time step continuity errors : sum local = 3.73583e-11, global = 5.28975e-12, cumulative = 5.59926e-10
ExecutionTime = 0.861601 s  ClockTime = 1 s

Courant Number mean: 0.12216 max: 0.970431
deltaT = 0.208487
Time = 9.791513s

PIMPLE: Iteration 1
smoothSolver:  Solving for Ux, Initial residual = 0.00369003, Final residual = 0.000177299, No Iterations 2
smoothSolver:  Solving for Uz, Initial residual = 0.00264774, Final residual = 3.19927e-05, No Iterations 3
GAMG:  Solving for p, Initial residual = 0.00117795, Final residual = 6.15582e-06, No Iterations 4
time step continuity errors : sum local = 1.1363e-08, global = 2.05889e-09
GAMG:  Solving for p, Initial residual = 0.000584156, Final residual = 1.91273e-08, No Iterations 8
time step continuity errors : sum local = 3.53072e-11, global = -1.01704e-11
PIMPLE: Iteration 2
smoothSolver:  Solving for Ux, Initial residual = 8.41464e-05, Final residual = 8.35481e-07, No Iterations 3
smoothSolver:  Solving for Uz, Initial residual = 7.41518e-05, Final residual = 8.07726e-07, No Iterations 3
GAMG:  Solving for p, Initial residual = 0.000727288, Final residual = 3.5676e-06, No Iterations 4
time step continuity errors : sum local = 6.58602e-09, global = -7.63956e-10
GAMG:  Solving for p, Initial residual = 0.000380128, Final residual = 9.33796e-08, No Iterations 6
time step continuity errors : sum local = 1.72404e-10, global = 4.29783e-11, cumulative = 6.02904e-10
ExecutionTime = 0.877914 s  ClockTime = 1 s

Courant Number mean: 0.122377 max: 0.970325
deltaT = 0.208487
Time = 10s

PIMPLE: Iteration 1
smoothSolver:  Solving for Ux, Initial residual = 0.00363026, Final residual = 0.000174637, No Iterations 2
smoothSolver:  Solving for Uz, Initial residual = 0.00259506, Final residual = 3.13757e-05, No Iterations 3
GAMG:  Solving for p, Initial residual = 0.00115343, Final residual = 6.0458e-06, No Iterations 4
time step continuity errors : sum local = 1.11649e-08, global = 2.01615e-09
GAMG:  Solving for p, Initial residual = 0.00057317, Final residual = 1.84577e-08, No Iterations 8
time step continuity errors : sum local = 3.40863e-11, global = -9.76709e-12
PIMPLE: Iteration 2
smoothSolver:  Solving for Ux, Initial residual = 8.27222e-05, Final residual = 8.23214e-07, No Iterations 3
smoothSolver:  Solving for Uz, Initial residual = 7.23453e-05, Final residual = 7.89831e-07, No Iterations 3
GAMG:  Solving for p, Initial residual = 0.000706484, Final residual = 3.43667e-06, No Iterations 4
time step continuity errors : sum local = 6.34712e-09, global = -7.44094e-10
GAMG:  Solving for p, Initial residual = 0.000369164, Final residual = 8.60704e-08, No Iterations 6
time step continuity errors : sum local = 1.58979e-10, global = 4.06605e-11, cumulative = 6.43565e-10
ExecutionTime = 0.902504 s  ClockTime = 1 s

Courant Number mean: 0.122591 max: 0.970222
deltaT = 0.212766
--> FOAM Warning : 
    From function virtual Foam::Time& Foam::Time::operator++()
    in file db/Time/Time.C at line 1315
    Increased the timePrecision from 7 to 8 to distinguish between timeNames at time 10.212766
Time = 10.212766s

PIMPLE: Iteration 1
smoothSolver:  Solving for Ux, Initial residual = 0.00364353, Final residual = 4.12679e-05, No Iterations 3
smoothSolver:  Solving for Uz, Initial residual = 0.00259328, Final residual = 3.33859e-05, No Iterations 3
GAMG:  Solving for p, Initial residual = 0.00154431, Final residual = 1.26638e-05, No Iterations 3
time step continuity errors : sum local = 2.40319e-08, global = 3.18556e-09
GAMG:  Solving for p, Initial residual = 0.000451783, Final residual = 7.54748e-08, No Iterations 7
time step continuity errors : sum local = 1.43141e-10, global = -3.11178e-11
PIMPLE: Iteration 2
smoothSolver:  Solving for Ux, Initial residual = 5.18641e-05, Final residual = 4.63846e-07, No Iterations 3
smoothSolver:  Solving for Uz, Initial residual = 6.21949e-05, Final residual = 6.92128e-07, No Iterations 3
GAMG:  Solving for p, Initial residual = 0.000715012, Final residual = 1.60338e-06, No Iterations 4
time step continuity errors : sum local = 3.04137e-09, global = -5.13857e-10
GAMG:  Solving for p, Initial residual = 0.000373694, Final residual = 2.97692e-08, No Iterations 6
time step continuity errors : sum local = 5.64787e-11, global = 1.4347e-11, cumulative = 6.57912e-10
ExecutionTime = 0.925864 s  ClockTime = 1 s

Courant Number mean: 0.125326 max: 0.990059
deltaT = 0.212766
Time = 10.425532s

PIMPLE: Iteration 1
smoothSolver:  Solving for Ux, Initial residual = 0.00358649, Final residual = 4.06712e-05, No Iterations 3
smoothSolver:  Solving for Uz, Initial residual = 0.0025454, Final residual = 3.27639e-05, No Iterations 3
GAMG:  Solving for p, Initial residual = 0.00106804, Final residual = 2.2332e-06, No Iterations 4
time step continuity errors : sum local = 4.23765e-09, global = 7.97951e-10
GAMG:  Solving for p, Initial residual = 0.00041679, Final residual = 3.27079e-08, No Iterations 6
time step continuity errors : sum local = 6.20772e-11, global = -2.12472e-11
PIMPLE: Iteration 2
smoothSolver:  Solving for Ux, Initial residual = 4.81566e-05, Final residual = 4.28606e-07, No Iterations 3
smoothSolver:  Solving for Uz, Initial residual = 6.06658e-05, Final residual = 6.87619e-07, No Iterations 3
GAMG:  Solving for p, Initial residual = 0.000688945, Final residual = 4.04117e-06, No Iterations 4
time step continuity errors : sum local = 7.67034e-09, global = -3.55869e-10
GAMG:  Solving for p, Initial residual = 0.000362924, Final residual = 2.54868e-08, No Iterations 7
time step continuity errors : sum local = 4.83781e-11, global = 1.31889e-11, cumulative = 6.71101e-10
ExecutionTime = 0.941737 s  ClockTime = 1 s

Courant Number mean: 0.125544 max: 0.989973
deltaT = 0.212766
Time = 10.638298s

PIMPLE: Iteration 1
smoothSolver:  Solving for Ux, Initial residual = 0.00353148, Final residual = 4.00864e-05, No Iterations 3
smoothSolver:  Solving for Uz, Initial residual = 0.00249217, Final residual = 3.21458e-05, No Iterations 3
GAMG:  Solving for p, Initial residual = 0.00097669, Final residual = 1.84982e-06, No Iterations 4
time step continuity errors : sum local = 3.51201e-09, global = 6.25619e-10
GAMG:  Solving for p, Initial residual = 0.000395887, Final residual = 3.27824e-08, No Iterations 6
time step continuity errors : sum local = 6.22421e-11, global = -1.47463e-11
PIMPLE: Iteration 2
smoothSolver:  Solving for Ux, Initial residual = 4.72434e-05, Final residual = 4.23027e-07, No Iterations 3
smoothSolver:  Solving for Uz, Initial residual = 5.90348e-05, Final residual = 6.71163e-07, No Iterations 3
GAMG:  Solving for p, Initial residual = 0.000669464, Final residual = 4.09922e-06, No Iterations 4
time step continuity errors : sum local = 7.78381e-09, global = -2.83858e-10
GAMG:  Solving for p, Initial residual = 0.000352638, Final residual = 3.4035e-08, No Iterations 7
time step continuity errors : sum local = 6.46315e-11, global = 1.05293e-11, cumulative = 6.8163e-10
ExecutionTime = 0.957532 s  ClockTime = 1 s

Courant Number mean: 0.125759 max: 0.989883
deltaT = 0.212766
Time = 10.851064s

PIMPLE: Iteration 1
smoothSolver:  Solving for Ux, Initial residual = 0.00347792, Final residual = 3.95202e-05, No Iterations 3
smoothSolver:  Solving for Uz, Initial residual = 0.00244264, Final residual = 3.15419e-05, No Iterations 3
GAMG:  Solving for p, Initial residual = 0.000957574, Final residual = 1.78582e-06, No Iterations 4
time step continuity errors : sum local = 3.3919e-09, global = 6.04784e-10
GAMG:  Solving for p, Initial residual = 0.000384612, Final residual = 3.20916e-08, No Iterations 6
time step continuity errors : sum local = 6.09543e-11, global = -1.42605e-11
PIMPLE: Iteration 2
smoothSolver:  Solving for Ux, Initial residual = 4.64977e-05, Final residual = 4.1621e-07, No Iterations 3
smoothSolver:  Solving for Uz, Initial residual = 5.75089e-05, Final residual = 6.55482e-07, No Iterations 3
GAMG:  Solving for p, Initial residual = 0.000651196, Final residual = 3.98707e-06, No Iterations 4
time step continuity errors : sum local = 7.57382e-09, global = -2.68647e-10
GAMG:  Solving for p, Initial residual = 0.000342614, Final residual = 3.1074e-08, No Iterations 7
time step continuity errors : sum local = 5.90316e-11, global = 1.04461e-11, cumulative = 6.92076e-10
ExecutionTime = 0.973348 s  ClockTime = 1 s

Courant Number mean: 0.125973 max: 0.989793
deltaT = 0.212766
Time = 11.06383s

PIMPLE: Iteration 1
smoothSolver:  Solving for Ux, Initial residual = 0.00342548, Final residual = 3.89696e-05, No Iterations 3
smoothSolver:  Solving for Uz, Initial residual = 0.00239488, Final residual = 3.09548e-05, No Iterations 3
GAMG:  Solving for p, Initial residual = 0.000923052, Final residual = 1.76523e-06, No Iterations 4
time step continuity errors : sum local = 3.35407e-09, global = 5.96759e-10
GAMG:  Solving for p, Initial residual = 0.000377964, Final residual = 3.12347e-08, No Iterations 6
time step continuity errors : sum local = 5.93492e-11, global = -1.39619e-11
PIMPLE: Iteration 2
smoothSolver:  Solving for Ux, Initial residual = 4.56675e-05, Final residual = 4.09536e-07, No Iterations 3
smoothSolver:  Solving for Uz, Initial residual = 5.60422e-05, Final residual = 6.40636e-07, No Iterations 3
GAMG:  Solving for p, Initial residual = 0.000633977, Final residual = 3.85184e-06, No Iterations 4
time step continuity errors : sum local = 7.31968e-09, global = -2.62309e-10
GAMG:  Solving for p, Initial residual = 0.000333346, Final residual = 2.74535e-08, No Iterations 7
time step continuity errors : sum local = 5.21731e-11, global = 1.05352e-11, cumulative = 7.02611e-10
ExecutionTime = 0.989176 s  ClockTime = 1 s

Courant Number mean: 0.126184 max: 0.989704
deltaT = 0.212766
Time = 11.276596s

PIMPLE: Iteration 1
smoothSolver:  Solving for Ux, Initial residual = 0.00337413, Final residual = 3.84301e-05, No Iterations 3
smoothSolver:  Solving for Uz, Initial residual = 0.00234866, Final residual = 3.0383e-05, No Iterations 3
GAMG:  Solving for p, Initial residual = 0.000902912, Final residual = 1.72421e-06, No Iterations 4
time step continuity errors : sum local = 3.27733e-09, global = 5.8279e-10
GAMG:  Solving for p, Initial residual = 0.000369114, Final residual = 3.03341e-08, No Iterations 6
time step continuity errors : sum local = 5.76591e-11, global = -1.35917e-11
PIMPLE: Iteration 2
smoothSolver:  Solving for Ux, Initial residual = 4.48747e-05, Final residual = 4.03109e-07, No Iterations 3
smoothSolver:  Solving for Uz, Initial residual = 5.46339e-05, Final residual = 6.26099e-07, No Iterations 3
GAMG:  Solving for p, Initial residual = 0.000617464, Final residual = 3.73103e-06, No Iterations 4
time step continuity errors : sum local = 7.09268e-09, global = -2.51434e-10
GAMG:  Solving for p, Initial residual = 0.000324777, Final residual = 2.47632e-08, No Iterations 7
time step continuity errors : sum local = 4.70774e-11, global = 1.03861e-11, cumulative = 7.12998e-10
ExecutionTime = 1.0051 s  ClockTime = 1 s

Courant Number mean: 0.126392 max: 0.989616
deltaT = 0.212766
Time = 11.489362s

PIMPLE: Iteration 1
smoothSolver:  Solving for Ux, Initial residual = 0.00332397, Final residual = 3.79013e-05, No Iterations 3
smoothSolver:  Solving for Uz, Initial residual = 0.00230397, Final residual = 2.98257e-05, No Iterations 3
GAMG:  Solving for p, Initial residual = 0.000878803, Final residual = 1.66632e-06, No Iterations 4
time step continuity errors : sum local = 3.16842e-09, global = 5.64571e-10
GAMG:  Solving for p, Initial residual = 0.000361059, Final residual = 2.93629e-08, No Iterations 6
time step continuity errors : sum local = 5.58327e-11, global = -1.31678e-11
PIMPLE: Iteration 2
smoothSolver:  Solving for Ux, Initial residual = 4.4048e-05, Final residual = 3.9682e-07, No Iterations 3
smoothSolver:  Solving for Uz, Initial residual = 5.3302e-05, Final residual = 6.12247e-07, No Iterations 3
GAMG:  Solving for p, Initial residual = 0.000602183, Final residual = 3.62691e-06, No Iterations 4
time step continuity errors : sum local = 6.89719e-09, global = -2.39406e-10
GAMG:  Solving for p, Initial residual = 0.000316349, Final residual = 2.32036e-08, No Iterations 7
time step continuity errors : sum local = 4.41279e-11, global = 9.97384e-12, cumulative = 7.22971e-10
ExecutionTime = 1.02107 s  ClockTime = 1 s

Courant Number mean: 0.126598 max: 0.989531
deltaT = 0.212766
Time = 11.702128s

PIMPLE: Iteration 1
smoothSolver:  Solving for Ux, Initial residual = 0.00327491, Final residual = 3.73862e-05, No Iterations 3
smoothSolver:  Solving for Uz, Initial residual = 0.00226075, Final residual = 2.92828e-05, No Iterations 3
GAMG:  Solving for p, Initial residual = 0.00086266, Final residual = 1.62575e-06, No Iterations 4
time step continuity errors : sum local = 3.09234e-09, global = 5.50524e-10
GAMG:  Solving for p, Initial residual = 0.00035398, Final residual = 2.85433e-08, No Iterations 6
time step continuity errors : sum local = 5.42928e-11, global = -1.28204e-11
PIMPLE: Iteration 2
smoothSolver:  Solving for Ux, Initial residual = 4.33102e-05, Final residual = 3.90605e-07, No Iterations 3
smoothSolver:  Solving for Uz, Initial residual = 5.20533e-05, Final residual = 5.99042e-07, No Iterations 3
GAMG:  Solving for p, Initial residual = 0.000586659, Final residual = 3.52608e-06, No Iterations 4
time step continuity errors : sum local = 6.7077e-09, global = -2.27865e-10
GAMG:  Solving for p, Initial residual = 0.000308276, Final residual = 2.11458e-08, No Iterations 7
time step continuity errors : sum local = 4.0228e-11, global = 9.73908e-12, cumulative = 7.3271e-10
ExecutionTime = 1.03686 s  ClockTime = 1 s

Courant Number mean: 0.126803 max: 0.989447
deltaT = 0.212766
Time = 11.914894s

PIMPLE: Iteration 1
smoothSolver:  Solving for Ux, Initial residual = 0.00322697, Final residual = 3.68852e-05, No Iterations 3
smoothSolver:  Solving for Uz, Initial residual = 0.00221921, Final residual = 2.87568e-05, No Iterations 3
GAMG:  Solving for p, Initial residual = 0.000843459, Final residual = 1.58802e-06, No Iterations 4
time step continuity errors : sum local = 3.02158e-09, global = 5.37514e-10
GAMG:  Solving for p, Initial residual = 0.000346816, Final residual = 2.77901e-08, No Iterations 6
time step continuity errors : sum local = 5.28777e-11, global = -1.25073e-11
PIMPLE: Iteration 2
smoothSolver:  Solving for Ux, Initial residual = 4.25969e-05, Final residual = 3.84803e-07, No Iterations 3
smoothSolver:  Solving for Uz, Initial residual = 5.08472e-05, Final residual = 5.86231e-07, No Iterations 3
GAMG:  Solving for p, Initial residual = 0.000574171, Final residual = 3.41766e-06, No Iterations 4
time step continuity errors : sum local = 6.50361e-09, global = -2.18033e-10
GAMG:  Solving for p, Initial residual = 0.000301208, Final residual = 1.90281e-08, No Iterations 7
time step continuity errors : sum local = 3.62111e-11, global = 9.51298e-12, cumulative = 7.42223e-10
ExecutionTime = 1.05271 s  ClockTime = 1 s

Courant Number mean: 0.127006 max: 0.989365
deltaT = 0.212766
Time = 12.12766s

PIMPLE: Iteration 1
smoothSolver:  Solving for Ux, Initial residual = 0.0031802, Final residual = 3.63942e-05, No Iterations 3
smoothSolver:  Solving for Uz, Initial residual = 0.00217887, Final residual = 2.82492e-05, No Iterations 3
GAMG:  Solving for p, Initial residual = 0.000821969, Final residual = 1.54723e-06, No Iterations 4
time step continuity errors : sum local = 2.94492e-09, global = 5.23733e-10
[...]
ExecutionTime = 4.01788 s  ClockTime = 4 s

Courant Number mean: 0.143586 max: 0.983411
deltaT = 0.212766
Time = 57.021277s

PIMPLE: Iteration 1
smoothSolver:  Solving for Ux, Initial residual = 0.000368612, Final residual = 4.29474e-06, No Iterations 3
smoothSolver:  Solving for Uz, Initial residual = 0.000182077, Final residual = 2.30064e-06, No Iterations 3
GAMG:  Solving for p, Initial residual = 6.60665e-05, Final residual = 1.78023e-07, No Iterations 3
time step continuity errors : sum local = 3.46313e-10, global = 5.95943e-11
GAMG:  Solving for p, Initial residual = 2.48399e-05, Final residual = 1.4097e-08, No Iterations 4
time step continuity errors : sum local = 2.74233e-11, global = -6.72111e-12
PIMPLE: Iteration 2
smoothSolver:  Solving for Ux, Initial residual = 4.62153e-06, Final residual = 9.31351e-07, No Iterations 1
smoothSolver:  Solving for Uz, Initial residual = 2.70532e-06, Final residual = 5.79867e-07, No Iterations 1
GAMG:  Solving for p, Initial residual = 3.51458e-05, Final residual = 7.88037e-08, No Iterations 3
time step continuity errors : sum local = 1.533e-10, global = -4.90468e-11
GAMG:  Solving for p, Initial residual = 1.39732e-05, Final residual = 5.39181e-08, No Iterations 3
time step continuity errors : sum local = 1.04889e-10, global = 7.40068e-12, cumulative = 1.89589e-09
ExecutionTime = 4.02988 s  ClockTime = 4 s

Courant Number mean: 0.143604 max: 0.983399
deltaT = 0.212766
Time = 57.234043s

PIMPLE: Iteration 1
smoothSolver:  Solving for Ux, Initial residual = 0.000365284, Final residual = 4.25544e-06, No Iterations 3
smoothSolver:  Solving for Uz, Initial residual = 0.000180353, Final residual = 2.27844e-06, No Iterations 3
GAMG:  Solving for p, Initial residual = 6.54492e-05, Final residual = 1.75686e-07, No Iterations 3
time step continuity errors : sum local = 3.41775e-10, global = 5.86957e-11
GAMG:  Solving for p, Initial residual = 2.46103e-05, Final residual = 1.40145e-08, No Iterations 4
time step continuity errors : sum local = 2.72635e-11, global = -6.63423e-12
PIMPLE: Iteration 2
smoothSolver:  Solving for Ux, Initial residual = 4.57989e-06, Final residual = 9.23017e-07, No Iterations 1
smoothSolver:  Solving for Uz, Initial residual = 2.67559e-06, Final residual = 5.73312e-07, No Iterations 1
GAMG:  Solving for p, Initial residual = 3.47813e-05, Final residual = 7.77985e-08, No Iterations 3
time step continuity errors : sum local = 1.51348e-10, global = -4.89364e-11
GAMG:  Solving for p, Initial residual = 1.38107e-05, Final residual = 5.30205e-08, No Iterations 3
time step continuity errors : sum local = 1.03145e-10, global = 7.83244e-12, cumulative = 1.90373e-09
ExecutionTime = 4.04179 s  ClockTime = 4 s

Courant Number mean: 0.143622 max: 0.983388
deltaT = 0.212766
Time = 57.446809s

PIMPLE: Iteration 1
smoothSolver:  Solving for Ux, Initial residual = 0.000361988, Final residual = 4.21654e-06, No Iterations 3
smoothSolver:  Solving for Uz, Initial residual = 0.000178644, Final residual = 2.25648e-06, No Iterations 3
GAMG:  Solving for p, Initial residual = 6.47188e-05, Final residual = 1.7314e-07, No Iterations 3
time step continuity errors : sum local = 3.36828e-10, global = 5.77464e-11
GAMG:  Solving for p, Initial residual = 2.43059e-05, Final residual = 1.39708e-08, No Iterations 4
time step continuity errors : sum local = 2.7179e-11, global = -6.57378e-12
PIMPLE: Iteration 2
smoothSolver:  Solving for Ux, Initial residual = 4.5375e-06, Final residual = 9.14552e-07, No Iterations 1
smoothSolver:  Solving for Uz, Initial residual = 2.64601e-06, Final residual = 5.66819e-07, No Iterations 1
GAMG:  Solving for p, Initial residual = 3.44241e-05, Final residual = 7.68136e-08, No Iterations 3
time step continuity errors : sum local = 1.49435e-10, global = -4.87737e-11
GAMG:  Solving for p, Initial residual = 1.36549e-05, Final residual = 5.21616e-08, No Iterations 3
time step continuity errors : sum local = 1.01476e-10, global = 8.19195e-12, cumulative = 1.91192e-09
ExecutionTime = 4.05374 s  ClockTime = 4 s

Courant Number mean: 0.14364 max: 0.983376
deltaT = 0.212766
Time = 57.659574s

PIMPLE: Iteration 1
smoothSolver:  Solving for Ux, Initial residual = 0.000358721, Final residual = 4.178e-06, No Iterations 3
smoothSolver:  Solving for Uz, Initial residual = 0.000176955, Final residual = 2.23471e-06, No Iterations 3
GAMG:  Solving for p, Initial residual = 6.42252e-05, Final residual = 1.70285e-07, No Iterations 3
time step continuity errors : sum local = 3.31281e-10, global = 5.66442e-11
GAMG:  Solving for p, Initial residual = 2.40599e-05, Final residual = 1.39411e-08, No Iterations 4
time step continuity errors : sum local = 2.71217e-11, global = -6.50347e-12
PIMPLE: Iteration 2
smoothSolver:  Solving for Ux, Initial residual = 4.49765e-06, Final residual = 9.06349e-07, No Iterations 1
smoothSolver:  Solving for Uz, Initial residual = 2.61694e-06, Final residual = 5.60436e-07, No Iterations 1
GAMG:  Solving for p, Initial residual = 3.40643e-05, Final residual = 7.5854e-08, No Iterations 3
time step continuity errors : sum local = 1.47571e-10, global = -4.85438e-11
GAMG:  Solving for p, Initial residual = 1.34977e-05, Final residual = 5.1338e-08, No Iterations 3
time step continuity errors : sum local = 9.9876e-11, global = 8.49473e-12, cumulative = 1.92041e-09
ExecutionTime = 4.06567 s  ClockTime = 4 s

Courant Number mean: 0.143658 max: 0.983365
deltaT = 0.212766
Time = 57.87234s

PIMPLE: Iteration 1
smoothSolver:  Solving for Ux, Initial residual = 0.000355482, Final residual = 4.1398e-06, No Iterations 3
smoothSolver:  Solving for Uz, Initial residual = 0.000175287, Final residual = 2.21319e-06, No Iterations 3
GAMG:  Solving for p, Initial residual = 6.34168e-05, Final residual = 1.68956e-07, No Iterations 3
time step continuity errors : sum local = 3.28702e-10, global = 5.62685e-11
GAMG:  Solving for p, Initial residual = 2.37567e-05, Final residual = 1.37886e-08, No Iterations 4
time step continuity errors : sum local = 2.68256e-11, global = -6.44781e-12
PIMPLE: Iteration 2
smoothSolver:  Solving for Ux, Initial residual = 4.45757e-06, Final residual = 8.98306e-07, No Iterations 1
smoothSolver:  Solving for Uz, Initial residual = 2.58769e-06, Final residual = 5.54034e-07, No Iterations 1
GAMG:  Solving for p, Initial residual = 3.3703e-05, Final residual = 7.48445e-08, No Iterations 3
time step continuity errors : sum local = 1.4561e-10, global = -4.85006e-11
GAMG:  Solving for p, Initial residual = 1.3342e-05, Final residual = 5.04379e-08, No Iterations 3
time step continuity errors : sum local = 9.81269e-11, global = 9.03332e-12, cumulative = 1.92945e-09
ExecutionTime = 4.07764 s  ClockTime = 4 s

Courant Number mean: 0.143676 max: 0.983353
deltaT = 0.212766
Time = 58.085106s

PIMPLE: Iteration 1
smoothSolver:  Solving for Ux, Initial residual = 0.000352282, Final residual = 4.102e-06, No Iterations 3
smoothSolver:  Solving for Uz, Initial residual = 0.000173632, Final residual = 2.19185e-06, No Iterations 3
GAMG:  Solving for p, Initial residual = 6.29841e-05, Final residual = 1.6767e-07, No Iterations 3
time step continuity errors : sum local = 3.26207e-10, global = 5.58022e-11
GAMG:  Solving for p, Initial residual = 2.35157e-05, Final residual = 1.36724e-08, No Iterations 4
time step continuity errors : sum local = 2.66001e-11, global = -6.3893e-12
PIMPLE: Iteration 2
smoothSolver:  Solving for Ux, Initial residual = 4.41793e-06, Final residual = 8.9036e-07, No Iterations 1
smoothSolver:  Solving for Uz, Initial residual = 2.55883e-06, Final residual = 5.47737e-07, No Iterations 1
GAMG:  Solving for p, Initial residual = 3.33422e-05, Final residual = 7.38737e-08, No Iterations 3
time step continuity errors : sum local = 1.43724e-10, global = -4.8423e-11
GAMG:  Solving for p, Initial residual = 1.31885e-05, Final residual = 4.9562e-08, No Iterations 3
time step continuity errors : sum local = 9.64246e-11, global = 9.54134e-12, cumulative = 1.93899e-09
ExecutionTime = 4.08969 s  ClockTime = 4 s

Courant Number mean: 0.143693 max: 0.983342
deltaT = 0.212766
Time = 58.297872s

PIMPLE: Iteration 1
smoothSolver:  Solving for Ux, Initial residual = 0.000349118, Final residual = 4.06458e-06, No Iterations 3
smoothSolver:  Solving for Uz, Initial residual = 0.000171991, Final residual = 2.17074e-06, No Iterations 3
GAMG:  Solving for p, Initial residual = 6.23183e-05, Final residual = 1.64884e-07, No Iterations 3
time step continuity errors : sum local = 3.20793e-10, global = 5.46711e-11
GAMG:  Solving for p, Initial residual = 2.32391e-05, Final residual = 1.36652e-08, No Iterations 4
time step continuity errors : sum local = 2.65865e-11, global = -6.32223e-12
PIMPLE: Iteration 2
smoothSolver:  Solving for Ux, Initial residual = 4.37829e-06, Final residual = 8.82397e-07, No Iterations 1
smoothSolver:  Solving for Uz, Initial residual = 2.53087e-06, Final residual = 5.41619e-07, No Iterations 1
GAMG:  Solving for p, Initial residual = 3.29909e-05, Final residual = 7.29799e-08, No Iterations 3
time step continuity errors : sum local = 1.41987e-10, global = -4.81628e-11
GAMG:  Solving for p, Initial residual = 1.30366e-05, Final residual = 4.87927e-08, No Iterations 3
time step continuity errors : sum local = 9.49298e-11, global = 9.80544e-12, cumulative = 1.94879e-09
ExecutionTime = 4.10172 s  ClockTime = 4 s

Courant Number mean: 0.14371 max: 0.98333
deltaT = 0.212766
Time = 58.510638s

PIMPLE: Iteration 1
smoothSolver:  Solving for Ux, Initial residual = 0.00034598, Final residual = 4.0275e-06, No Iterations 3
smoothSolver:  Solving for Uz, Initial residual = 0.000170369, Final residual = 2.14984e-06, No Iterations 3
GAMG:  Solving for p, Initial residual = 6.16539e-05, Final residual = 1.62245e-07, No Iterations 3
time step continuity errors : sum local = 3.15664e-10, global = 5.3697e-11
GAMG:  Solving for p, Initial residual = 2.29789e-05, Final residual = 1.36274e-08, No Iterations 4
time step continuity errors : sum local = 2.65135e-11, global = -6.2616e-12
PIMPLE: Iteration 2
smoothSolver:  Solving for Ux, Initial residual = 4.33907e-06, Final residual = 8.74514e-07, No Iterations 1
smoothSolver:  Solving for Uz, Initial residual = 2.50315e-06, Final residual = 5.35564e-07, No Iterations 1
GAMG:  Solving for p, Initial residual = 3.2641e-05, Final residual = 7.21024e-08, No Iterations 3
time step continuity errors : sum local = 1.40283e-10, global = -4.79284e-11
GAMG:  Solving for p, Initial residual = 1.28864e-05, Final residual = 4.8024e-08, No Iterations 3
time step continuity errors : sum local = 9.34359e-11, global = 1.00988e-11, cumulative = 1.95889e-09
ExecutionTime = 4.11386 s  ClockTime = 4 s

Courant Number mean: 0.143727 max: 0.983319
deltaT = 0.212766
Time = 58.723404s

PIMPLE: Iteration 1
smoothSolver:  Solving for Ux, Initial residual = 0.000342869, Final residual = 3.99073e-06, No Iterations 3
smoothSolver:  Solving for Uz, Initial residual = 0.000168765, Final residual = 2.12916e-06, No Iterations 3
GAMG:  Solving for p, Initial residual = 6.10869e-05, Final residual = 1.60121e-07, No Iterations 3
time step continuity errors : sum local = 3.11537e-10, global = 5.2932e-11
GAMG:  Solving for p, Initial residual = 2.27176e-05, Final residual = 1.35544e-08, No Iterations 4
time step continuity errors : sum local = 2.6372e-11, global = -6.20675e-12
PIMPLE: Iteration 2
smoothSolver:  Solving for Ux, Initial residual = 4.30032e-06, Final residual = 8.66733e-07, No Iterations 1
smoothSolver:  Solving for Uz, Initial residual = 2.47568e-06, Final residual = 5.29562e-07, No Iterations 1
GAMG:  Solving for p, Initial residual = 3.22961e-05, Final residual = 7.12372e-08, No Iterations 3
time step continuity errors : sum local = 1.38602e-10, global = -4.77409e-11
GAMG:  Solving for p, Initial residual = 1.27381e-05, Final residual = 4.72416e-08, No Iterations 3
time step continuity errors : sum local = 9.19154e-11, global = 1.04572e-11, cumulative = 1.96935e-09
ExecutionTime = 4.12606 s  ClockTime = 4 s

Courant Number mean: 0.143743 max: 0.983308
deltaT = 0.212766
Time = 58.93617s

PIMPLE: Iteration 1
smoothSolver:  Solving for Ux, Initial residual = 0.000339792, Final residual = 3.95432e-06, No Iterations 3
smoothSolver:  Solving for Uz, Initial residual = 0.000167178, Final residual = 2.10872e-06, No Iterations 3
GAMG:  Solving for p, Initial residual = 6.04254e-05, Final residual = 1.58374e-07, No Iterations 3
time step continuity errors : sum local = 3.08143e-10, global = 5.22608e-11
GAMG:  Solving for p, Initial residual = 2.24939e-05, Final residual = 1.34817e-08, No Iterations 4
time step continuity errors : sum local = 2.62309e-11, global = -6.16212e-12
PIMPLE: Iteration 2
smoothSolver:  Solving for Ux, Initial residual = 4.26205e-06, Final residual = 8.5902e-07, No Iterations 1
smoothSolver:  Solving for Uz, Initial residual = 2.44843e-06, Final residual = 5.23553e-07, No Iterations 1
GAMG:  Solving for p, Initial residual = 3.19538e-05, Final residual = 7.03761e-08, No Iterations 3
time step continuity errors : sum local = 1.36929e-10, global = -4.75716e-11
GAMG:  Solving for p, Initial residual = 1.25907e-05, Final residual = 4.64478e-08, No Iterations 3
time step continuity errors : sum local = 9.03726e-11, global = 1.0857e-11, cumulative = 1.98021e-09
ExecutionTime = 4.13877 s  ClockTime = 4 s

Courant Number mean: 0.14376 max: 0.983297
deltaT = 0.212766
Time = 59.148936s

PIMPLE: Iteration 1
smoothSolver:  Solving for Ux, Initial residual = 0.000336741, Final residual = 3.91834e-06, No Iterations 3
smoothSolver:  Solving for Uz, Initial residual = 0.000165605, Final residual = 2.08849e-06, No Iterations 3
GAMG:  Solving for p, Initial residual = 5.94024e-05, Final residual = 1.5822e-07, No Iterations 3
time step continuity errors : sum local = 3.0785e-10, global = 5.20715e-11
GAMG:  Solving for p, Initial residual = 2.23799e-05, Final residual = 1.33668e-08, No Iterations 4
time step continuity errors : sum local = 2.60079e-11, global = -6.1385e-12
PIMPLE: Iteration 2
smoothSolver:  Solving for Ux, Initial residual = 4.22463e-06, Final residual = 8.5142e-07, No Iterations 1
smoothSolver:  Solving for Uz, Initial residual = 2.42141e-06, Final residual = 5.17362e-07, No Iterations 1
GAMG:  Solving for p, Initial residual = 3.16196e-05, Final residual = 7.05413e-08, No Iterations 3
time step continuity errors : sum local = 1.37253e-10, global = -4.72486e-11
GAMG:  Solving for p, Initial residual = 1.24379e-05, Final residual = 4.56719e-08, No Iterations 3
time step continuity errors : sum local = 8.88646e-11, global = 1.12208e-11, cumulative = 1.99143e-09
ExecutionTime = 4.15129 s  ClockTime = 4 s

Courant Number mean: 0.143776 max: 0.983286
deltaT = 0.212766
Time = 59.361702s

PIMPLE: Iteration 1
smoothSolver:  Solving for Ux, Initial residual = 0.000333723, Final residual = 3.88279e-06, No Iterations 3
smoothSolver:  Solving for Uz, Initial residual = 0.000164046, Final residual = 2.06844e-06, No Iterations 3
GAMG:  Solving for p, Initial residual = 5.87291e-05, Final residual = 1.5353e-07, No Iterations 3
time step continuity errors : sum local = 2.9873e-10, global = 5.06221e-11
GAMG:  Solving for p, Initial residual = 2.20505e-05, Final residual = 1.34424e-08, No Iterations 4
time step continuity errors : sum local = 2.61554e-11, global = -6.0738e-12
PIMPLE: Iteration 2
smoothSolver:  Solving for Ux, Initial residual = 4.18628e-06, Final residual = 8.43829e-07, No Iterations 1
smoothSolver:  Solving for Uz, Initial residual = 2.39567e-06, Final residual = 5.11754e-07, No Iterations 1
GAMG:  Solving for p, Initial residual = 3.12914e-05, Final residual = 6.87474e-08, No Iterations 3
time step continuity errors : sum local = 1.33765e-10, global = -4.71161e-11
GAMG:  Solving for p, Initial residual = 1.23053e-05, Final residual = 4.49704e-08, No Iterations 3
time step continuity errors : sum local = 8.75012e-11, global = 1.14704e-11, cumulative = 2.0029e-09
ExecutionTime = 4.16338 s  ClockTime = 4 s

Courant Number mean: 0.143792 max: 0.983275
deltaT = 0.212766
Time = 59.574468s

PIMPLE: Iteration 1
smoothSolver:  Solving for Ux, Initial residual = 0.000330728, Final residual = 3.84751e-06, No Iterations 3
smoothSolver:  Solving for Uz, Initial residual = 0.000162507, Final residual = 2.04865e-06, No Iterations 3
GAMG:  Solving for p, Initial residual = 5.82443e-05, Final residual = 1.52453e-07, No Iterations 3
time step continuity errors : sum local = 2.9664e-10, global = 5.00445e-11
GAMG:  Solving for p, Initial residual = 2.18199e-05, Final residual = 1.32619e-08, No Iterations 4
time step continuity errors : sum local = 2.58048e-11, global = -6.01468e-12
PIMPLE: Iteration 2
smoothSolver:  Solving for Ux, Initial residual = 4.14913e-06, Final residual = 8.36413e-07, No Iterations 1
smoothSolver:  Solving for Uz, Initial residual = 2.36925e-06, Final residual = 5.05966e-07, No Iterations 1
GAMG:  Solving for p, Initial residual = 3.09596e-05, Final residual = 6.89295e-08, No Iterations 3
time step continuity errors : sum local = 1.34122e-10, global = -4.67992e-11
GAMG:  Solving for p, Initial residual = 1.21593e-05, Final residual = 4.43203e-08, No Iterations 3
time step continuity errors : sum local = 8.62379e-11, global = 1.16328e-11, cumulative = 2.01453e-09
ExecutionTime = 4.17548 s  ClockTime = 4 s

Courant Number mean: 0.143808 max: 0.983264
deltaT = 0.212766
Time = 59.787234s

PIMPLE: Iteration 1
smoothSolver:  Solving for Ux, Initial residual = 0.000327759, Final residual = 3.81256e-06, No Iterations 3
smoothSolver:  Solving for Uz, Initial residual = 0.000160985, Final residual = 2.02904e-06, No Iterations 3
GAMG:  Solving for p, Initial residual = 5.75222e-05, Final residual = 1.49691e-07, No Iterations 3
time step continuity errors : sum local = 2.91271e-10, global = 4.92804e-11
GAMG:  Solving for p, Initial residual = 2.15461e-05, Final residual = 1.33067e-08, No Iterations 4
time step continuity errors : sum local = 2.58924e-11, global = -5.96911e-12
PIMPLE: Iteration 2
smoothSolver:  Solving for Ux, Initial residual = 4.1121e-06, Final residual = 8.2897e-07, No Iterations 1
smoothSolver:  Solving for Uz, Initial residual = 2.34367e-06, Final residual = 5.0038e-07, No Iterations 1
GAMG:  Solving for p, Initial residual = 3.06409e-05, Final residual = 6.81241e-08, No Iterations 3
time step continuity errors : sum local = 1.32557e-10, global = -4.65821e-11
GAMG:  Solving for p, Initial residual = 1.20201e-05, Final residual = 4.36456e-08, No Iterations 3
time step continuity errors : sum local = 8.49265e-11, global = 1.18489e-11, cumulative = 2.02638e-09
ExecutionTime = 4.18777 s  ClockTime = 4 s

Courant Number mean: 0.143823 max: 0.983253
deltaT = 0.212766
Time = 60s

PIMPLE: Iteration 1
smoothSolver:  Solving for Ux, Initial residual = 0.000324822, Final residual = 3.77795e-06, No Iterations 3
smoothSolver:  Solving for Uz, Initial residual = 0.000159479, Final residual = 2.00968e-06, No Iterations 3
GAMG:  Solving for p, Initial residual = 5.69076e-05, Final residual = 1.47836e-07, No Iterations 3
time step continuity errors : sum local = 2.87665e-10, global = 4.85868e-11
GAMG:  Solving for p, Initial residual = 2.13287e-05, Final residual = 1.322e-08, No Iterations 4
time step continuity errors : sum local = 2.57241e-11, global = -5.92892e-12
PIMPLE: Iteration 2
smoothSolver:  Solving for Ux, Initial residual = 4.07567e-06, Final residual = 8.21657e-07, No Iterations 1
smoothSolver:  Solving for Uz, Initial residual = 2.31809e-06, Final residual = 4.94758e-07, No Iterations 1
GAMG:  Solving for p, Initial residual = 3.03267e-05, Final residual = 6.73123e-08, No Iterations 3
time step continuity errors : sum local = 1.3098e-10, global = -4.6437e-11
GAMG:  Solving for p, Initial residual = 1.18879e-05, Final residual = 4.29406e-08, No Iterations 3
time step continuity errors : sum local = 8.35562e-11, global = 1.21598e-11, cumulative = 2.03854e-09
ExecutionTime = 4.20785 s  ClockTime = 4 s

End

